LTspice 24.0.10 for Windows
Circuit: * AD8000P SPICE Macro-model
Start Time: Fri Apr  5 14:46:08 2024
Fatal Error: No analysis request found.
