LTspice 24.0.10 for Windows
Circuit: * C:\Users\fath_local\Desktop\pico_contest\ltspice\buffer.asc
Start Time: Fri Apr  5 16:32:27 2024
solver = Normal
Maximum thread count: 8
tnom = 27
temp = 27
method = modified trap
Direct Newton iteration failed to find .op point.  (Use ".option noopiter" to skip.)
Starting Gmin stepping
Gmin = 10
Gmin = 1.07374
vernier = 0.5
vernier = 0.25
vernier = 0.125
vernier = 0.0625
Gmin = 1.15289
vernier = 0.03125
Gmin = 1.0585
vernier = 0.015625
vernier = 0.0208333
vernier = 0.0104167
Gmin = 1.04074
vernier = 0.00520833
vernier = 0.00694444
vernier = 0.00347222
Gmin = 1.03131
vernier = 0.00462963
vernier = 0.00231481
Gmin = 1.02388
vernier = 0.00308642
vernier = 0.00154321
Gmin = 1.01954
vernier = 0.00205761
vernier = 0.00102881
Gmin = 1.01614
vernier = 0.00137174
vernier = 0.00068587
Gmin = 1.01362
vernier = 0.000914493
Gmin = 1.01159
vernier = 0.00121932
vernier = 0.000609662
vernier = 0.000812882
Gmin = 1.01018
vernier = 0.000406441
vernier = 0.000541921
Gmin = 1.00933
vernier = 0.000722562
vernier = 0.000541921
vernier = 0.000406441
Gmin = 1.00851
vernier = 0.000541921
vernier = 0.000406441
Gmin = 1.00769
vernier = 0.000541921
vernier = 0.000406441
Gmin = 0
Gmin stepping failed

Starting source stepping with srcstepmethod=0
Source Step = 3.0303%
Source Step = 33.3333%
Source Step = 63.6364%
Source Step = 93.9394%
Source stepping succeeded in finding the operating point.

Changing Tseed to 1e-14
Changing Tseed to 1e-16
Changing Tseed to 1e-13
Changing Tseed to 1e-17
Changing Tseed to 1e-12
Changing Tseed to 1e-18
Changing Tseed to 1e-11
Changing Tseed to 1e-19
Changing Tseed to 1e-10
Changing Tseed to 1e-20
Heightened Def Con from 1e-20 ++++++++to 1.1e-19
Heightened Def Con from 1.1e-19 +++++++++to 2.1e-19
Heightened Def Con from 1.61149e-09 to 1.61149e-09
Heightened Def Con from 2.26909e-09 to 2.26909e-09
Heightened Def Con from 2.26909e-09 +to 2.26909e-09
Heightened Def Con from 2.26909e-09 to 2.26909e-09
Heightened Def Con from 2.26909e-09 to 2.26909e-09
Heightened Def Con from 2.26909e-09 to 2.26909e-09
Heightened Def Con from 2.26909e-09 to 2.26909e-09
Heightened Def Con from 2.26909e-09 to 2.26909e-09
Heightened Def Con from 2.26909e-09 to 2.26909e-09
Heightened Def Con from 2.26909e-09 +to 2.26909e-09
Heightened Def Con from 2.26909e-09 to 2.26909e-09
Heightened Def Con from 2.26909e-09 to 2.26909e-09
Heightened Def Con from 2.26909e-09 ++to 2.26909e-09
Heightened Def Con from 2.26909e-09 +to 2.26909e-09
Heightened Def Con from 2.26909e-09 +to 2.26909e-09
Heightened Def Con from 2.26909e-09 to 2.26909e-09
Heightened Def Con from 2.26909e-09 +to 2.26909e-09
Heightened Def Con from 2.26909e-09 +to 2.26909e-09
Heightened Def Con from 2.26909e-09 to 2.26909e-09
Heightened Def Con from 2.26909e-09 to 2.26909e-09
Heightened Def Con from 2.26909e-09 to 2.26909e-09
Heightened Def Con from 2.26909e-09 to 2.26909e-09
Heightened Def Con from 2.26909e-09 to 2.26909e-09
Heightened Def Con from 2.26909e-09 to 2.26909e-09
Heightened Def Con from 2.26909e-09 +to 2.26909e-09
Heightened Def Con from 2.26909e-09 to 2.26909e-09
Heightened Def Con from 2.26909e-09 +to 2.26909e-09
Heightened Def Con from 2.26909e-09 to 2.26909e-09
Heightened Def Con from 2.26909e-09 ++to 2.26909e-09
Heightened Def Con from 2.26909e-09 to 2.26909e-09
Heightened Def Con from 2.26909e-09 to 2.26909e-09
Heightened Def Con from 2.26909e-09 +to 2.26909e-09
Heightened Def Con from 2.26909e-09 to 2.26909e-09
Heightened Def Con from 2.26909e-09 ++to 2.26909e-09
Heightened Def Con from 2.26909e-09 to 2.26909e-09
Heightened Def Con from 2.26909e-09 ++to 2.26909e-09
Heightened Def Con from 2.26909e-09 ++to 2.26909e-09
Heightened Def Con from 2.26909e-09 to 2.26909e-09
Heightened Def Con from 2.26909e-09 to 2.26909e-09
Heightened Def Con from 2.26909e-09 +to 2.26909e-09
Heightened Def Con from 2.26909e-09 to 2.26909e-09
Heightened Def Con from 2.26909e-09 +to 2.26909e-09
Heightened Def Con from 2.26909e-09 +to 2.26909e-09
Heightened Def Con from 2.26909e-09 +to 2.26909e-09
Heightened Def Con from 2.26909e-09 ++to 2.26909e-09
Heightened Def Con from 2.26909e-09 +to 2.26909e-09
Heightened Def Con from 2.26909e-09 to 2.26909e-09
Heightened Def Con from 2.26909e-09 +to 2.26909e-09
Heightened Def Con from 2.26909e-09 to 2.26909e-09
Heightened Def Con from 2.26909e-09 to 2.26909e-09
Heightened Def Con from 2.26909e-09 to 2.26909e-09
Heightened Def Con from 2.26909e-09 to 2.26909e-09
Heightened Def Con from 2.26909e-09 +to 2.26909e-09
Heightened Def Con from 2.26909e-09 ++to 2.26909e-09
Heightened Def Con from 2.26909e-09 ++++to 2.26909e-09
Heightened Def Con from 2.26909e-09 +to 2.26909e-09
Heightened Def Con from 2.26909e-09 to 2.26909e-09
Heightened Def Con from 2.26909e-09 +++to 2.26909e-09
Heightened Def Con from 2.26909e-09 +to 2.26909e-09
Heightened Def Con from 2.26909e-09 ++to 2.26909e-09
Heightened Def Con from 2.26909e-09 to 2.26909e-09
Heightened Def Con from 2.26909e-09 to 2.26909e-09
Heightened Def Con from 2.26909e-09 +to 2.26909e-09
Heightened Def Con from 2.26909e-09 +to 2.26909e-09
Heightened Def Con from 2.26909e-09 to 2.26909e-09
Heightened Def Con from 2.26909e-09 to 2.26909e-09
Heightened Def Con from 2.26909e-09 ++to 2.26909e-09
Heightened Def Con from 2.26909e-09 to 2.26909e-09
Heightened Def Con from 2.26909e-09 +++++++++++++++++++to 2.26928e-09
Heightened Def Con from 2.43584e-09 to 2.43584e-09
Heightened Def Con from 2.43584e-09 to 2.43584e-09
Heightened Def Con from 2.43584e-09 to 2.43584e-09
Heightened Def Con from 2.43584e-09 to 2.43584e-09
Heightened Def Con from 2.43584e-09 +to 2.43584e-09
Heightened Def Con from 2.43584e-09 to 2.43584e-09
Heightened Def Con from 2.43584e-09 ++to 2.43584e-09
Heightened Def Con from 2.43584e-09 to 2.43584e-09
Heightened Def Con from 2.43584e-09 to 2.43584e-09
Heightened Def Con from 2.43584e-09 to 2.43584e-09
Heightened Def Con from 2.43584e-09 to 2.43584e-09
Heightened Def Con from 2.43584e-09 +to 2.43584e-09
Heightened Def Con from 2.43584e-09 to 2.43584e-09
Heightened Def Con from 2.43584e-09 to 2.43584e-09
Heightened Def Con from 2.43584e-09 +++to 2.43584e-09
Heightened Def Con from 2.43584e-09 +to 2.43584e-09
Heightened Def Con from 2.43584e-09 to 2.43584e-09
Heightened Def Con from 2.43584e-09 ++++to 2.43584e-09
Heightened Def Con from 2.43584e-09 to 2.43584e-09
Heightened Def Con from 2.43584e-09 to 2.43584e-09
Heightened Def Con from 2.43584e-09 to 2.43584e-09
Heightened Def Con from 2.43584e-09 to 2.43584e-09
Heightened Def Con from 2.43584e-09 to 2.43584e-09
Heightened Def Con from 2.43584e-09 to 2.43584e-09
Heightened Def Con from 2.43584e-09 +to 2.43584e-09
Heightened Def Con from 2.43584e-09 ++to 2.43584e-09
Heightened Def Con from 2.43584e-09 +++++to 2.43584e-09
Heightened Def Con from 2.43584e-09 +++to 2.43584e-09
Heightened Def Con from 2.43584e-09 +++to 2.43584e-09
Heightened Def Con from 2.43584e-09 to 2.43584e-09
Heightened Def Con from 2.43584e-09 +++++to 2.43584e-09
Heightened Def Con from 2.43584e-09 +++++to 2.43584e-09
Heightened Def Con from 2.76176e-09 +to 2.76176e-09
Heightened Def Con from 2.76176e-09 to 2.76176e-09
Heightened Def Con from 2.76176e-09 to 2.76176e-09
Heightened Def Con from 2.76176e-09 to 2.76176e-09
Heightened Def Con from 2.76176e-09 +to 2.76176e-09
Heightened Def Con from 2.76176e-09 +to 2.76176e-09
Heightened Def Con from 2.76176e-09 to 2.76176e-09
Heightened Def Con from 2.76176e-09 to 2.76176e-09
Heightened Def Con from 2.76176e-09 to 2.76176e-09
Heightened Def Con from 2.76176e-09 to 2.76176e-09
Heightened Def Con from 2.76176e-09 to 2.76176e-09
Heightened Def Con from 2.76176e-09 to 2.76176e-09
Heightened Def Con from 2.76176e-09 +to 2.76176e-09
Heightened Def Con from 2.76176e-09 to 2.76176e-09
Heightened Def Con from 2.76176e-09 +++++to 2.76176e-09
Heightened Def Con from 2.76176e-09 +to 2.76176e-09
Heightened Def Con from 2.76176e-09 +to 2.76176e-09
Heightened Def Con from 2.76176e-09 +to 2.76176e-09
Heightened Def Con from 2.76176e-09 +++to 2.76176e-09
Heightened Def Con from 2.76176e-09 ++++to 2.76176e-09
Heightened Def Con from 2.76176e-09 +to 2.76176e-09
Heightened Def Con from 2.76176e-09 to 2.76176e-09
Heightened Def Con from 2.76176e-09 to 2.76176e-09
Heightened Def Con from 2.76176e-09 +++to 2.76176e-09
Heightened Def Con from 2.76176e-09 ++to 2.76176e-09
Heightened Def Con from 2.76176e-09 to 2.76176e-09
Heightened Def Con from 2.76176e-09 to 2.76176e-09
Heightened Def Con from 2.76176e-09 to 2.76176e-09
Heightened Def Con from 2.76176e-09 +to 2.76176e-09
Heightened Def Con from 2.76176e-09 to 2.76176e-09
Heightened Def Con from 2.76176e-09 to 2.76176e-09
Heightened Def Con from 2.76176e-09 +++to 2.76176e-09
Heightened Def Con from 2.76176e-09 to 2.76176e-09
Heightened Def Con from 2.76176e-09 to 2.76176e-09
Heightened Def Con from 2.76176e-09 +to 2.76176e-09
Heightened Def Con from 2.76176e-09 +to 2.76176e-09
Heightened Def Con from 2.76176e-09 ++to 2.76176e-09
Heightened Def Con from 2.76176e-09 +++to 2.76176e-09
Heightened Def Con from 2.76176e-09 to 2.76176e-09
Heightened Def Con from 2.76176e-09 to 2.76176e-09
Heightened Def Con from 2.76176e-09 ++++++to 2.76176e-09
Heightened Def Con from 2.76176e-09 ++++to 2.76176e-09
Heightened Def Con from 2.76176e-09 ++++to 2.76176e-09
Heightened Def Con from 2.76176e-09 +++to 2.76176e-09
Heightened Def Con from 2.76176e-09 +to 2.76176e-09
Heightened Def Con from 2.76176e-09 +to 2.76176e-09
Heightened Def Con from 2.76176e-09 ++to 2.76176e-09
Heightened Def Con from 2.76176e-09 to 2.76176e-09
Heightened Def Con from 2.76176e-09 to 2.76176e-09
Heightened Def Con from 2.76176e-09 +to 2.76176e-09
Heightened Def Con from 2.76176e-09 +++++to 2.76176e-09
Heightened Def Con from 2.76176e-09 to 2.76176e-09
Heightened Def Con from 2.76176e-09 +to 2.76176e-09
Heightened Def Con from 2.76176e-09 ++to 2.76176e-09
Heightened Def Con from 2.76176e-09 +++++to 2.76176e-09
Heightened Def Con from 2.76176e-09 +to 2.76176e-09
Heightened Def Con from 2.76176e-09 to 2.76176e-09
Heightened Def Con from 2.76176e-09 +to 2.76176e-09
Heightened Def Con from 2.76176e-09 +++to 2.76176e-09
Heightened Def Con from 2.76176e-09 to 2.76176e-09
Heightened Def Con from 2.76176e-09 +to 2.76176e-09
Heightened Def Con from 2.76176e-09 +to 2.76176e-09
Heightened Def Con from 2.76176e-09 +to 2.76176e-09
Heightened Def Con from 2.76176e-09 ++++to 2.76176e-09
Heightened Def Con from 2.76176e-09 +to 2.76176e-09
Heightened Def Con from 2.76176e-09 +++to 2.76176e-09
Heightened Def Con from 2.76176e-09 +++to 2.76176e-09
Heightened Def Con from 2.76176e-09 +to 2.76176e-09
Heightened Def Con from 2.76176e-09 +++to 2.76176e-09
Heightened Def Con from 2.76176e-09 +to 2.76176e-09
Heightened Def Con from 2.76176e-09 to 2.76176e-09
Heightened Def Con from 2.76176e-09 +to 2.76176e-09
Heightened Def Con from 2.76176e-09 +to 2.76176e-09
Heightened Def Con from 2.76176e-09 +to 2.76176e-09
Heightened Def Con from 2.76176e-09 ++to 2.76176e-09
Heightened Def Con from 2.76176e-09 +to 2.76176e-09
Heightened Def Con from 2.76176e-09 ++to 2.76176e-09
Heightened Def Con from 2.76176e-09 +to 2.76176e-09
Heightened Def Con from 2.76176e-09 +++to 2.76176e-09
Heightened Def Con from 2.76176e-09 +to 2.76176e-09
Heightened Def Con from 2.76176e-09 +to 2.76176e-09
Heightened Def Con from 2.76176e-09 to 2.76176e-09
Heightened Def Con from 2.76176e-09 +to 2.76176e-09
Heightened Def Con from 2.76176e-09 +to 2.76176e-09
Heightened Def Con from 2.76176e-09 +++++to 2.76176e-09
Heightened Def Con from 2.76176e-09 +to 2.76176e-09
Heightened Def Con from 2.76176e-09 +to 2.76176e-09
Heightened Def Con from 2.76176e-09 to 2.76176e-09
Heightened Def Con from 2.76176e-09 +to 2.76176e-09
Heightened Def Con from 2.76176e-09 to 2.76176e-09
Heightened Def Con from 2.76176e-09 +to 2.76176e-09
Heightened Def Con from 2.76176e-09 to 2.76176e-09
Heightened Def Con from 2.76176e-09 ++to 2.76176e-09
Heightened Def Con from 2.76176e-09 to 2.76176e-09
Heightened Def Con from 2.76176e-09 to 2.76176e-09
Heightened Def Con from 2.76176e-09 +++to 2.76176e-09
Heightened Def Con from 2.76176e-09 ++++to 2.76176e-09
Heightened Def Con from 2.76176e-09 to 2.76176e-09
Heightened Def Con from 2.76176e-09 +to 2.76176e-09
Heightened Def Con from 2.76176e-09 to 2.76176e-09
Heightened Def Con from 2.76176e-09 +to 2.76176e-09
Heightened Def Con from 2.76176e-09 +++++to 2.76176e-09
Heightened Def Con from 2.76176e-09 to 2.76176e-09
Heightened Def Con from 2.76176e-09 +++to 2.76176e-09
Heightened Def Con from 2.76176e-09 to 2.76176e-09
Heightened Def Con from 2.76176e-09 +++to 2.76176e-09
Heightened Def Con from 2.76176e-09 to 2.76176e-09
Heightened Def Con from 2.76176e-09 +to 2.76176e-09
Heightened Def Con from 2.76176e-09 to 2.76176e-09
Heightened Def Con from 2.76176e-09 +++to 2.76176e-09
Heightened Def Con from 2.76176e-09 +to 2.76176e-09
Heightened Def Con from 2.76176e-09 to 2.76176e-09
Heightened Def Con from 2.76176e-09 +to 2.76176e-09
Heightened Def Con from 2.76176e-09 +to 2.76176e-09
Heightened Def Con from 2.76176e-09 to 2.76176e-09
Heightened Def Con from 2.76176e-09 +to 2.76176e-09
Heightened Def Con from 2.76176e-09 +++to 2.76176e-09
Heightened Def Con from 2.76176e-09 to 2.76176e-09
Heightened Def Con from 2.76176e-09 +to 2.76176e-09
Heightened Def Con from 2.76176e-09 +to 2.76176e-09
Heightened Def Con from 2.76176e-09 +++to 2.76176e-09
Heightened Def Con from 2.76176e-09 ++++to 2.76176e-09
Heightened Def Con from 2.76176e-09 to 2.76176e-09
Heightened Def Con from 2.76176e-09 to 2.76176e-09
Heightened Def Con from 2.76176e-09 +to 2.76176e-09
Heightened Def Con from 2.76176e-09 +to 2.76176e-09
Heightened Def Con from 2.76176e-09 ++++to 2.76176e-09
Heightened Def Con from 2.76176e-09 ++to 2.76176e-09
Heightened Def Con from 2.76176e-09 to 2.76176e-09
Heightened Def Con from 2.76176e-09 +to 2.76176e-09
Heightened Def Con from 2.76176e-09 +to 2.76176e-09
Heightened Def Con from 2.76176e-09 +to 2.76176e-09
Heightened Def Con from 2.76176e-09 +to 2.76176e-09
Heightened Def Con from 2.76176e-09 to 2.76176e-09
Heightened Def Con from 2.76176e-09 ++to 2.76176e-09
Heightened Def Con from 2.76176e-09 +++to 2.76176e-09
Heightened Def Con from 2.76176e-09 +++to 2.76176e-09
Heightened Def Con from 2.76176e-09 to 2.76176e-09
Heightened Def Con from 2.76176e-09 +to 2.76176e-09
Heightened Def Con from 2.76176e-09 ++++to 2.76176e-09
Heightened Def Con from 2.76176e-09 to 2.76176e-09
Heightened Def Con from 2.76176e-09 to 2.76176e-09
Heightened Def Con from 2.76176e-09 to 2.76176e-09
Heightened Def Con from 2.76176e-09 to 2.76176e-09
Heightened Def Con from 2.76176e-09 ++to 2.76176e-09
Heightened Def Con from 2.76176e-09 ++to 2.76176e-09
Heightened Def Con from 2.76176e-09 +++to 2.76176e-09
Heightened Def Con from 2.76176e-09 +to 2.76176e-09
Heightened Def Con from 2.76176e-09 +to 2.76176e-09
Heightened Def Con from 2.76176e-09 ++to 2.76176e-09
Heightened Def Con from 2.76176e-09 +++to 2.76176e-09
Heightened Def Con from 2.76176e-09 to 2.76176e-09
Heightened Def Con from 2.76176e-09 +to 2.76176e-09
Heightened Def Con from 2.76176e-09 ++to 2.76176e-09
Heightened Def Con from 2.76176e-09 +to 2.76176e-09
Heightened Def Con from 2.76176e-09 +to 2.76176e-09
Heightened Def Con from 2.76176e-09 to 2.76176e-09
Heightened Def Con from 2.76176e-09 to 2.76176e-09
Heightened Def Con from 2.76176e-09 +to 2.76176e-09
Heightened Def Con from 2.76176e-09 +to 2.76176e-09
Heightened Def Con from 2.76176e-09 +to 2.76176e-09
Heightened Def Con from 2.76176e-09 +to 2.76176e-09
Heightened Def Con from 2.76176e-09 +to 2.76176e-09
Heightened Def Con from 2.76176e-09 +to 2.76176e-09
Heightened Def Con from 2.76176e-09 to 2.76176e-09
Heightened Def Con from 2.76176e-09 ++to 2.76176e-09
Heightened Def Con from 2.76176e-09 ++to 2.76176e-09
Heightened Def Con from 2.76176e-09 +++++to 2.76176e-09
Heightened Def Con from 2.76176e-09 ++++to 2.76176e-09
Heightened Def Con from 2.76176e-09 ++to 2.76176e-09
Heightened Def Con from 2.76176e-09 +++to 2.76176e-09
Heightened Def Con from 2.76176e-09 +++to 2.76176e-09
Heightened Def Con from 2.76176e-09 ++to 2.76176e-09
Heightened Def Con from 2.76176e-09 to 2.76176e-09
Heightened Def Con from 2.76176e-09 to 2.76176e-09
Heightened Def Con from 2.76176e-09 to 2.76176e-09
Heightened Def Con from 2.76176e-09 to 2.76176e-09
Heightened Def Con from 2.76176e-09 ++to 2.76176e-09
Heightened Def Con from 2.76176e-09 ++to 2.76176e-09
Heightened Def Con from 2.76176e-09 to 2.76176e-09
Heightened Def Con from 2.76176e-09 to 2.76176e-09
Heightened Def Con from 2.76176e-09 ++to 2.76176e-09
Heightened Def Con from 2.76176e-09 +to 2.76176e-09
Heightened Def Con from 2.76176e-09 to 2.76176e-09
Heightened Def Con from 2.76176e-09 +to 2.76176e-09
Heightened Def Con from 2.76176e-09 to 2.76176e-09
Heightened Def Con from 2.76176e-09 +to 2.76176e-09
Heightened Def Con from 2.76176e-09 to 2.76176e-09
Heightened Def Con from 2.76176e-09 +++to 2.76176e-09
Heightened Def Con from 2.76176e-09 +to 2.76176e-09
Heightened Def Con from 2.76176e-09 +to 2.76176e-09
Heightened Def Con from 2.76176e-09 ++to 2.76176e-09
Heightened Def Con from 2.76176e-09 +++++to 2.76176e-09
Heightened Def Con from 2.76176e-09 ++to 2.76176e-09
Heightened Def Con from 2.76176e-09 to 2.76176e-09
Heightened Def Con from 2.76176e-09 ++to 2.76176e-09
Heightened Def Con from 2.76176e-09 to 2.76176e-09
Heightened Def Con from 2.76176e-09 to 2.76176e-09
Heightened Def Con from 2.76176e-09 to 2.76176e-09
Heightened Def Con from 2.76176e-09 +to 2.76176e-09
Heightened Def Con from 2.76176e-09 ++++to 2.76176e-09
Heightened Def Con from 2.76176e-09 ++to 2.76176e-09
Heightened Def Con from 2.76176e-09 to 2.76176e-09
Heightened Def Con from 2.76176e-09 +to 2.76176e-09
Heightened Def Con from 2.76176e-09 +++to 2.76176e-09
Heightened Def Con from 2.76176e-09 +to 2.76176e-09
Heightened Def Con from 2.76176e-09 +to 2.76176e-09
Heightened Def Con from 2.76176e-09 to 2.76176e-09
Heightened Def Con from 2.76176e-09 ++to 2.76176e-09
Heightened Def Con from 2.76176e-09 +to 2.76176e-09
Heightened Def Con from 2.76176e-09 ++to 2.76176e-09
Heightened Def Con from 2.76176e-09 to 2.76176e-09
Heightened Def Con from 2.76176e-09 to 2.76176e-09
Heightened Def Con from 2.76176e-09 to 2.76176e-09
Heightened Def Con from 2.76176e-09 to 2.76176e-09
Heightened Def Con from 2.76176e-09 ++++to 2.76176e-09
Heightened Def Con from 2.76176e-09 ++to 2.76176e-09
Heightened Def Con from 2.76176e-09 to 2.76176e-09
Heightened Def Con from 2.76176e-09 +to 2.76176e-09
Heightened Def Con from 2.76176e-09 +to 2.76176e-09
Heightened Def Con from 2.76176e-09 ++++to 2.76176e-09
Heightened Def Con from 2.76176e-09 +to 2.76176e-09
Heightened Def Con from 2.76176e-09 ++to 2.76176e-09
Heightened Def Con from 2.76176e-09 ++to 2.76176e-09
Heightened Def Con from 2.76176e-09 +to 2.76176e-09
Heightened Def Con from 2.76176e-09 to 2.76176e-09
Heightened Def Con from 2.76176e-09 +to 2.76176e-09
Heightened Def Con from 2.76176e-09 +to 2.76176e-09
Heightened Def Con from 2.76176e-09 to 2.76176e-09
Heightened Def Con from 2.76176e-09 +to 2.76176e-09
Heightened Def Con from 2.76176e-09 +to 2.76176e-09
Heightened Def Con from 2.76176e-09 to 2.76176e-09
Heightened Def Con from 2.76176e-09 to 2.76176e-09
Heightened Def Con from 2.76176e-09 +to 2.76176e-09
Heightened Def Con from 2.76176e-09 +to 2.76176e-09
Heightened Def Con from 2.76176e-09 ++to 2.76176e-09
Heightened Def Con from 2.76176e-09 +to 2.76176e-09
Heightened Def Con from 2.76176e-09 +to 2.76176e-09
Heightened Def Con from 2.76176e-09 to 2.76176e-09
Heightened Def Con from 2.76176e-09 +to 2.76176e-09
Heightened Def Con from 2.76176e-09 to 2.76176e-09
Heightened Def Con from 2.76176e-09 ++to 2.76176e-09
Heightened Def Con from 2.76176e-09 +to 2.76176e-09
Heightened Def Con from 2.76176e-09 +to 2.76176e-09
Heightened Def Con from 2.76176e-09 to 2.76176e-09
Heightened Def Con from 2.76176e-09 +to 2.76176e-09
Heightened Def Con from 2.76176e-09 to 2.76176e-09
Heightened Def Con from 2.76176e-09 ++to 2.76176e-09
Heightened Def Con from 2.76176e-09 +++to 2.76176e-09
Heightened Def Con from 2.76176e-09 +to 2.76176e-09
Heightened Def Con from 2.76176e-09 +to 2.76176e-09
Heightened Def Con from 2.76176e-09 +to 2.76176e-09
Heightened Def Con from 2.76176e-09 +to 2.76176e-09
Heightened Def Con from 2.76176e-09 to 2.76176e-09
Heightened Def Con from 2.76176e-09 to 2.76176e-09
Heightened Def Con from 2.76176e-09 to 2.76176e-09
Heightened Def Con from 2.76176e-09 ++++to 2.76176e-09
Heightened Def Con from 2.76176e-09 ++to 2.76176e-09
Heightened Def Con from 2.76176e-09 ++to 2.76176e-09
Heightened Def Con from 2.76176e-09 to 2.76176e-09
Heightened Def Con from 2.76176e-09 +to 2.76176e-09
Heightened Def Con from 2.76176e-09 +to 2.76176e-09
Heightened Def Con from 2.76176e-09 to 2.76176e-09
Heightened Def Con from 2.76176e-09 +to 2.76176e-09
Heightened Def Con from 2.76176e-09 +to 2.76176e-09
Heightened Def Con from 2.76176e-09 ++to 2.76176e-09
Heightened Def Con from 2.76176e-09 to 2.76176e-09
Heightened Def Con from 2.76176e-09 to 2.76176e-09
Heightened Def Con from 2.76176e-09 +to 2.76176e-09
Heightened Def Con from 2.76176e-09 to 2.76176e-09
Heightened Def Con from 2.76176e-09 +to 2.76176e-09
Heightened Def Con from 2.76176e-09 +to 2.76176e-09
Heightened Def Con from 2.76176e-09 +to 2.76176e-09
Heightened Def Con from 2.76176e-09 +to 2.76176e-09
Heightened Def Con from 2.76176e-09 to 2.76176e-09
Heightened Def Con from 2.76176e-09 to 2.76176e-09
Heightened Def Con from 2.76176e-09 to 2.76176e-09
Heightened Def Con from 2.76176e-09 +to 2.76176e-09
Heightened Def Con from 2.76176e-09 +to 2.76176e-09
Heightened Def Con from 2.76176e-09 +to 2.76176e-09
Heightened Def Con from 2.76176e-09 to 2.76176e-09
Heightened Def Con from 2.76176e-09 to 2.76176e-09
Heightened Def Con from 2.76176e-09 ++to 2.76176e-09
Heightened Def Con from 2.76176e-09 to 2.76176e-09
Heightened Def Con from 2.76176e-09 +++++to 2.76176e-09
Heightened Def Con from 2.76176e-09 to 2.76176e-09
Heightened Def Con from 2.76176e-09 to 2.76176e-09
Heightened Def Con from 2.76176e-09 +to 2.76176e-09
Heightened Def Con from 2.76176e-09 to 2.76176e-09
Heightened Def Con from 2.76176e-09 to 2.76176e-09
Heightened Def Con from 2.76176e-09 ++++to 2.76176e-09
Heightened Def Con from 2.76176e-09 to 2.76176e-09
Heightened Def Con from 2.76176e-09 to 2.76176e-09
Heightened Def Con from 2.76176e-09 to 2.76176e-09
Heightened Def Con from 2.76176e-09 to 2.76176e-09
Heightened Def Con from 2.76176e-09 +++to 2.76176e-09
Heightened Def Con from 2.76176e-09 +to 2.76176e-09
Heightened Def Con from 2.76176e-09 to 2.76176e-09
Heightened Def Con from 2.76176e-09 +to 2.76176e-09
Heightened Def Con from 2.76176e-09 +to 2.76176e-09
Heightened Def Con from 2.76176e-09 to 2.76176e-09
Heightened Def Con from 2.76176e-09 to 2.76176e-09
Heightened Def Con from 2.76176e-09 +to 2.76176e-09
Heightened Def Con from 2.76176e-09 to 2.76176e-09
Heightened Def Con from 2.76176e-09 to 2.76176e-09
Heightened Def Con from 2.76176e-09 to 2.76176e-09
Heightened Def Con from 2.76176e-09 +to 2.76176e-09
Heightened Def Con from 2.76176e-09 +to 2.76176e-09
Heightened Def Con from 2.76176e-09 ++to 2.76176e-09
Heightened Def Con from 2.76176e-09 ++to 2.76176e-09
Heightened Def Con from 2.76176e-09 ++to 2.76176e-09
Heightened Def Con from 2.76176e-09 ++to 2.76176e-09
Heightened Def Con from 2.76176e-09 +to 2.76176e-09
Heightened Def Con from 2.76176e-09 to 2.76176e-09
Heightened Def Con from 2.76176e-09 to 2.76176e-09
Heightened Def Con from 2.76176e-09 +to 2.76176e-09
Heightened Def Con from 2.76176e-09 to 2.76176e-09
Heightened Def Con from 2.76176e-09 +to 2.76176e-09
Heightened Def Con from 2.76176e-09 to 2.76176e-09
Heightened Def Con from 2.76176e-09 +to 2.76176e-09
Heightened Def Con from 2.76176e-09 +++++to 2.76176e-09
Heightened Def Con from 2.76176e-09 to 2.76176e-09
Heightened Def Con from 2.76176e-09 to 2.76176e-09
Heightened Def Con from 2.76176e-09 ++++to 2.76176e-09
Heightened Def Con from 2.76176e-09 ++++to 2.76176e-09
Heightened Def Con from 2.76176e-09 ++to 2.76176e-09
Heightened Def Con from 2.76176e-09 to 2.76176e-09
Heightened Def Con from 2.76176e-09 to 2.76176e-09
Heightened Def Con from 2.76176e-09 to 2.76176e-09
Heightened Def Con from 2.76176e-09 to 2.76176e-09
Heightened Def Con from 2.76176e-09 +to 2.76176e-09
Heightened Def Con from 2.76176e-09 ++to 2.76176e-09
Heightened Def Con from 2.76176e-09 +to 2.76176e-09
Heightened Def Con from 2.76176e-09 to 2.76176e-09
Heightened Def Con from 2.76176e-09 to 2.76176e-09
Heightened Def Con from 2.76176e-09 +to 2.76176e-09
Heightened Def Con from 2.76176e-09 +to 2.76176e-09
Heightened Def Con from 2.76176e-09 +to 2.76176e-09
Heightened Def Con from 2.76176e-09 +to 2.76176e-09
Heightened Def Con from 2.76176e-09 +to 2.76176e-09
Heightened Def Con from 2.76176e-09 +++to 2.76176e-09
Heightened Def Con from 2.76176e-09 to 2.76176e-09
Heightened Def Con from 2.76176e-09 to 2.76176e-09
Heightened Def Con from 2.76176e-09 to 2.76176e-09
Heightened Def Con from 2.76176e-09 ++++to 2.76176e-09
Heightened Def Con from 2.76176e-09 ++++to 2.76176e-09
Heightened Def Con from 2.76176e-09 ++++to 2.76176e-09
Heightened Def Con from 2.76176e-09 to 2.76176e-09
Heightened Def Con from 2.76176e-09 to 2.76176e-09
Heightened Def Con from 2.76176e-09 +to 2.76176e-09
Heightened Def Con from 2.76176e-09 ++to 2.76176e-09
Heightened Def Con from 2.76176e-09 ++to 2.76176e-09
Heightened Def Con from 2.76176e-09 +to 2.76176e-09
Heightened Def Con from 2.76176e-09 +to 2.76176e-09
Heightened Def Con from 2.76176e-09 to 2.76176e-09
Heightened Def Con from 2.76176e-09 to 2.76176e-09
Heightened Def Con from 2.76176e-09 +to 2.76176e-09
Heightened Def Con from 2.76176e-09 to 2.76176e-09
Heightened Def Con from 2.76176e-09 ++++++to 2.76176e-09
Heightened Def Con from 2.89233e-09 to 2.89233e-09
Heightened Def Con from 2.89233e-09 +to 2.89233e-09
Heightened Def Con from 2.89233e-09 to 2.89233e-09
Heightened Def Con from 2.89233e-09 to 2.89233e-09
Heightened Def Con from 2.89233e-09 to 2.89233e-09
Heightened Def Con from 2.89233e-09 +to 2.89233e-09
Heightened Def Con from 2.89233e-09 ++to 2.89233e-09
Heightened Def Con from 2.89233e-09 ++to 2.89233e-09
Heightened Def Con from 2.89233e-09 +to 2.89233e-09
Heightened Def Con from 2.89233e-09 to 2.89233e-09
Heightened Def Con from 2.89233e-09 +to 2.89233e-09
Heightened Def Con from 2.89233e-09 +++to 2.89233e-09
Heightened Def Con from 2.89233e-09 to 2.89233e-09
Heightened Def Con from 2.89233e-09 to 2.89233e-09
Heightened Def Con from 2.89233e-09 to 2.89233e-09
Heightened Def Con from 2.89233e-09 +to 2.89233e-09
Heightened Def Con from 2.89233e-09 +to 2.89233e-09
Heightened Def Con from 2.89233e-09 to 2.89233e-09
Heightened Def Con from 2.89233e-09 +to 2.89233e-09
Heightened Def Con from 2.89233e-09 +to 2.89233e-09
Heightened Def Con from 2.89233e-09 to 2.89233e-09
Heightened Def Con from 2.89233e-09 to 2.89233e-09
Heightened Def Con from 2.89233e-09 ++to 2.89233e-09
Heightened Def Con from 2.89233e-09 to 2.89233e-09
Heightened Def Con from 2.89233e-09 +to 2.89233e-09
Heightened Def Con from 2.89233e-09 to 2.89233e-09
Heightened Def Con from 2.89233e-09 +++to 2.89233e-09
Heightened Def Con from 2.89233e-09 ++to 2.89233e-09
Heightened Def Con from 2.89233e-09 to 2.89233e-09
Heightened Def Con from 2.89233e-09 to 2.89233e-09
Heightened Def Con from 2.89233e-09 +to 2.89233e-09
Heightened Def Con from 2.89233e-09 to 2.89233e-09
Heightened Def Con from 2.89233e-09 +to 2.89233e-09
Heightened Def Con from 2.89233e-09 ++to 2.89233e-09
Heightened Def Con from 2.89233e-09 to 2.89233e-09
Heightened Def Con from 2.89233e-09 +to 2.89233e-09
Heightened Def Con from 2.89233e-09 ++to 2.89233e-09
Heightened Def Con from 2.89233e-09 to 2.89233e-09
Heightened Def Con from 2.89233e-09 to 2.89233e-09
Heightened Def Con from 2.89233e-09 to 2.89233e-09
Heightened Def Con from 2.89233e-09 to 2.89233e-09
Heightened Def Con from 2.89233e-09 to 2.89233e-09
Heightened Def Con from 2.89233e-09 to 2.89233e-09
Heightened Def Con from 2.89233e-09 ++to 2.89233e-09
Heightened Def Con from 2.89233e-09 ++to 2.89233e-09
Heightened Def Con from 2.89233e-09 +to 2.89233e-09
Heightened Def Con from 2.89233e-09 to 2.89233e-09
Heightened Def Con from 2.89233e-09 +to 2.89233e-09
Heightened Def Con from 2.89233e-09 to 2.89233e-09
Heightened Def Con from 2.89233e-09 to 2.89233e-09
Heightened Def Con from 2.89233e-09 to 2.89233e-09
Heightened Def Con from 2.89233e-09 +to 2.89233e-09
Heightened Def Con from 2.89233e-09 to 2.89233e-09
Heightened Def Con from 2.89233e-09 to 2.89233e-09
Heightened Def Con from 2.89233e-09 +to 2.89233e-09
Heightened Def Con from 2.89233e-09 to 2.89233e-09
Heightened Def Con from 2.89233e-09 to 2.89233e-09
Heightened Def Con from 2.89233e-09 to 2.89233e-09
Heightened Def Con from 2.89233e-09 to 2.89233e-09
Heightened Def Con from 2.89233e-09 to 2.89233e-09
Heightened Def Con from 2.89233e-09 to 2.89233e-09
Heightened Def Con from 2.89233e-09 to 2.89233e-09
Heightened Def Con from 2.89233e-09 to 2.89233e-09
Heightened Def Con from 2.89233e-09 +to 2.89233e-09
Heightened Def Con from 2.89233e-09 +to 2.89233e-09
Heightened Def Con from 2.89233e-09 to 2.89233e-09
Heightened Def Con from 2.89233e-09 +to 2.89233e-09
Heightened Def Con from 2.89233e-09 to 2.89233e-09
Heightened Def Con from 2.89233e-09 to 2.89233e-09
Heightened Def Con from 2.89233e-09 to 2.89233e-09
Heightened Def Con from 2.89233e-09 to 2.89233e-09
Heightened Def Con from 2.89233e-09 +to 2.89233e-09
Heightened Def Con from 2.89233e-09 to 2.89233e-09
Heightened Def Con from 2.89233e-09 to 2.89233e-09
Heightened Def Con from 2.89233e-09 +to 2.89233e-09
Heightened Def Con from 2.89233e-09 +to 2.89233e-09
Heightened Def Con from 2.89233e-09 ++to 2.89233e-09
Heightened Def Con from 2.89233e-09 +to 2.89233e-09
Heightened Def Con from 2.89233e-09 ++to 2.89233e-09
Heightened Def Con from 2.89233e-09 to 2.89233e-09
Heightened Def Con from 2.89233e-09 +to 2.89233e-09
Heightened Def Con from 2.89233e-09 to 2.89233e-09
Heightened Def Con from 2.89233e-09 +to 2.89233e-09
Heightened Def Con from 2.89233e-09 +to 2.89233e-09
Heightened Def Con from 2.89233e-09 +to 2.89233e-09
Heightened Def Con from 2.89233e-09 to 2.89233e-09
Heightened Def Con from 2.89233e-09 +to 2.89233e-09
Heightened Def Con from 2.89233e-09 +to 2.89233e-09
Heightened Def Con from 2.89233e-09 +++++++to 2.89233e-09
Heightened Def Con from 2.89233e-09 to 2.89233e-09
Heightened Def Con from 2.89233e-09 to 2.89233e-09
Heightened Def Con from 2.89233e-09 to 2.89233e-09
Heightened Def Con from 2.89233e-09 to 2.89233e-09
Heightened Def Con from 2.89233e-09 to 2.89233e-09
Heightened Def Con from 2.89233e-09 +to 2.89233e-09
Heightened Def Con from 2.89233e-09 to 2.89233e-09
Heightened Def Con from 2.89233e-09 to 2.89233e-09
Heightened Def Con from 2.89233e-09 to 2.89233e-09
Heightened Def Con from 2.89233e-09 +to 2.89233e-09
Heightened Def Con from 2.89233e-09 to 2.89233e-09
Heightened Def Con from 2.89233e-09 to 2.89233e-09
Heightened Def Con from 2.89233e-09 to 2.89233e-09
Heightened Def Con from 2.89233e-09 to 2.89233e-09
Heightened Def Con from 2.89233e-09 to 2.89233e-09
Heightened Def Con from 2.89233e-09 to 2.89233e-09
Heightened Def Con from 2.89233e-09 to 2.89233e-09
Heightened Def Con from 2.89233e-09 to 2.89233e-09
Heightened Def Con from 2.89233e-09 +to 2.89233e-09
Heightened Def Con from 2.89233e-09 +to 2.89233e-09
Heightened Def Con from 2.89233e-09 to 2.89233e-09
Heightened Def Con from 2.89233e-09 +to 2.89233e-09
Heightened Def Con from 2.89233e-09 to 2.89233e-09
Heightened Def Con from 2.89233e-09 to 2.89233e-09
Heightened Def Con from 2.89233e-09 to 2.89233e-09
Heightened Def Con from 2.89233e-09 to 2.89233e-09
Heightened Def Con from 2.89233e-09 +to 2.89233e-09
Heightened Def Con from 2.89233e-09 to 2.89233e-09
Heightened Def Con from 2.89233e-09 to 2.89233e-09
Heightened Def Con from 2.89233e-09 to 2.89233e-09
Heightened Def Con from 2.89233e-09 to 2.89233e-09
Heightened Def Con from 2.89233e-09 to 2.89233e-09
Heightened Def Con from 2.89233e-09 to 2.89233e-09
Heightened Def Con from 2.89233e-09 ++to 2.89233e-09
Heightened Def Con from 2.89233e-09 +to 2.89233e-09
Heightened Def Con from 2.89233e-09 to 2.89233e-09
Heightened Def Con from 2.89233e-09 to 2.89233e-09
Heightened Def Con from 2.89233e-09 ++to 2.89233e-09
Heightened Def Con from 2.89233e-09 to 2.89233e-09
Heightened Def Con from 2.89233e-09 to 2.89233e-09
Heightened Def Con from 2.89233e-09 to 2.89233e-09
Heightened Def Con from 2.89233e-09 ++to 2.89233e-09
Heightened Def Con from 2.89233e-09 to 2.89233e-09
Heightened Def Con from 2.89233e-09 to 2.89233e-09
Heightened Def Con from 2.89233e-09 to 2.89233e-09
Heightened Def Con from 2.89233e-09 +to 2.89233e-09
Heightened Def Con from 2.89233e-09 +to 2.89233e-09
Heightened Def Con from 2.89233e-09 to 2.89233e-09
Heightened Def Con from 2.89233e-09 to 2.89233e-09
Heightened Def Con from 2.89233e-09 to 2.89233e-09
Heightened Def Con from 2.89233e-09 to 2.89233e-09
Heightened Def Con from 2.89233e-09 to 2.89233e-09
Heightened Def Con from 2.89233e-09 to 2.89233e-09
Heightened Def Con from 2.89233e-09 to 2.89233e-09
Heightened Def Con from 2.89233e-09 to 2.89233e-09
Heightened Def Con from 2.89233e-09 to 2.89233e-09
Heightened Def Con from 2.89233e-09 +to 2.89233e-09
Heightened Def Con from 2.89233e-09 to 2.89233e-09
Heightened Def Con from 2.89233e-09 ++to 2.89233e-09
Heightened Def Con from 2.89233e-09 to 2.89233e-09
Heightened Def Con from 2.89233e-09 +to 2.89233e-09
Heightened Def Con from 2.89233e-09 +++to 2.89233e-09
Heightened Def Con from 2.89233e-09 to 2.89233e-09
Heightened Def Con from 2.89233e-09 to 2.89233e-09
Heightened Def Con from 2.89233e-09 ++to 2.89233e-09
Heightened Def Con from 2.89233e-09 to 2.89233e-09
Heightened Def Con from 2.89233e-09 to 2.89233e-09
Heightened Def Con from 2.89233e-09 to 2.89233e-09
Heightened Def Con from 2.89233e-09 to 2.89233e-09
Heightened Def Con from 2.89233e-09 to 2.89233e-09
Heightened Def Con from 2.89233e-09 +++to 2.89233e-09
Heightened Def Con from 2.89233e-09 +to 2.89233e-09
Heightened Def Con from 2.89233e-09 to 2.89233e-09
Heightened Def Con from 2.89233e-09 to 2.89233e-09
Heightened Def Con from 2.89233e-09 +to 2.89233e-09
Heightened Def Con from 2.89233e-09 to 2.89233e-09
Heightened Def Con from 2.89233e-09 +to 2.89233e-09
Heightened Def Con from 2.89233e-09 to 2.89233e-09
Heightened Def Con from 2.89233e-09 +to 2.89233e-09
Heightened Def Con from 2.89233e-09 to 2.89233e-09
Heightened Def Con from 2.89233e-09 to 2.89233e-09
Heightened Def Con from 2.89233e-09 ++to 2.89233e-09
Heightened Def Con from 2.89233e-09 to 2.89233e-09
Heightened Def Con from 2.89233e-09 to 2.89233e-09
Heightened Def Con from 2.89233e-09 to 2.89233e-09
Heightened Def Con from 2.89233e-09 to 2.89233e-09
Heightened Def Con from 2.89233e-09 to 2.89233e-09
Heightened Def Con from 2.89233e-09 to 2.89233e-09
Heightened Def Con from 2.89233e-09 +to 2.89233e-09
Heightened Def Con from 2.89233e-09 to 2.89233e-09
Heightened Def Con from 2.89233e-09 to 2.89233e-09
Heightened Def Con from 2.89233e-09 +to 2.89233e-09
Heightened Def Con from 2.89233e-09 to 2.89233e-09
Heightened Def Con from 2.89233e-09 to 2.89233e-09
Heightened Def Con from 2.89233e-09 +to 2.89233e-09
Heightened Def Con from 2.89233e-09 to 2.89233e-09
Heightened Def Con from 2.89233e-09 +to 2.89233e-09
Heightened Def Con from 2.89233e-09 to 2.89233e-09
Heightened Def Con from 2.89233e-09 +to 2.89233e-09
Heightened Def Con from 2.89233e-09 ++to 2.89233e-09
Heightened Def Con from 2.89233e-09 to 2.89233e-09
Heightened Def Con from 2.89233e-09 to 2.89233e-09
Heightened Def Con from 2.89233e-09 to 2.89233e-09
Heightened Def Con from 2.89233e-09 to 2.89233e-09
Heightened Def Con from 2.89233e-09 to 2.89233e-09
Heightened Def Con from 2.89233e-09 to 2.89233e-09
Heightened Def Con from 2.89233e-09 +to 2.89233e-09
Heightened Def Con from 2.89233e-09 to 2.89233e-09
Heightened Def Con from 2.89233e-09 +to 2.89233e-09
Heightened Def Con from 2.89233e-09 +to 2.89233e-09
Heightened Def Con from 2.89233e-09 to 2.89233e-09
Heightened Def Con from 2.89233e-09 to 2.89233e-09
Heightened Def Con from 2.89233e-09 to 2.89233e-09
Heightened Def Con from 2.89233e-09 to 2.89233e-09
Heightened Def Con from 2.89233e-09 ++to 2.89233e-09
Heightened Def Con from 2.89233e-09 to 2.89233e-09
Heightened Def Con from 2.89233e-09 ++to 2.89233e-09
Heightened Def Con from 2.89233e-09 +to 2.89233e-09
Heightened Def Con from 2.89233e-09 to 2.89233e-09
Heightened Def Con from 2.89233e-09 ++to 2.89233e-09
Heightened Def Con from 2.89233e-09 to 2.89233e-09
Heightened Def Con from 2.89233e-09 to 2.89233e-09
Heightened Def Con from 2.89233e-09 to 2.89233e-09
Heightened Def Con from 2.89233e-09 ++to 2.89233e-09
Heightened Def Con from 2.89233e-09 ++to 2.89233e-09
Heightened Def Con from 2.89233e-09 to 2.89233e-09
Heightened Def Con from 2.89233e-09 to 2.89233e-09
Heightened Def Con from 2.89233e-09 to 2.89233e-09
Heightened Def Con from 2.89233e-09 +++++++++++++++++++to 2.89253e-09
Heightened Def Con from 2.89253e-09 to 3.09253e-09
Heightened Def Con from 5.241e-09 to 5.241e-09
Heightened Def Con from 5.95087e-09 +++to 5.95087e-09
Heightened Def Con from 5.95087e-09 +to 5.95087e-09
Heightened Def Con from 7.89528e-09 to 7.89528e-09
Heightened Def Con from 7.89528e-09 to 7.89528e-09
Heightened Def Con from 7.89528e-09 to 7.89528e-09
Heightened Def Con from 7.89528e-09 to 7.89528e-09
Heightened Def Con from 7.89528e-09 to 7.89528e-09
Heightened Def Con from 9.80771e-09 to 9.80771e-09
Heightened Def Con from 1.16065e-08 to 1.16065e-08
Heightened Def Con from 1.16065e-08 to 1.16065e-08
Heightened Def Con from 1.16065e-08 to 1.16065e-08
Heightened Def Con from 1.16065e-08 to 1.16065e-08
Heightened Def Con from 1.16065e-08 to 1.16065e-08
Heightened Def Con from 1.16065e-08 +++to 1.16065e-08
Heightened Def Con from 1.16065e-08 to 1.16065e-08
Heightened Def Con from 1.16065e-08 to 1.16065e-08
Heightened Def Con from 1.16065e-08 to 1.16065e-08
Heightened Def Con from 1.16065e-08 +to 1.16065e-08
Heightened Def Con from 1.16065e-08 to 1.16065e-08
Heightened Def Con from 1.16065e-08 to 1.16065e-08
Heightened Def Con from 1.16065e-08 to 1.16065e-08
Heightened Def Con from 1.16065e-08 to 1.16065e-08
Heightened Def Con from 1.16065e-08 to 1.16065e-08
Heightened Def Con from 1.16065e-08 +to 1.16065e-08
Heightened Def Con from 1.16065e-08 +to 1.16065e-08
Heightened Def Con from 1.16065e-08 to 1.16065e-08
Heightened Def Con from 1.16065e-08 +to 1.16065e-08
Heightened Def Con from 1.16065e-08 +to 1.16065e-08
Heightened Def Con from 1.16065e-08 to 1.16065e-08
Heightened Def Con from 1.16065e-08 to 1.16065e-08
Heightened Def Con from 1.16065e-08 to 1.16065e-08
Heightened Def Con from 1.16065e-08 to 1.16065e-08
Heightened Def Con from 1.16065e-08 to 1.16065e-08
Heightened Def Con from 1.16065e-08 +++++++++++++++++++to 1.16066e-08
Heightened Def Con from 1.34755e-08 to 1.34755e-08
Heightened Def Con from 1.34755e-08 to 1.34755e-08
Heightened Def Con from 1.5511e-08 to 1.5511e-08
Heightened Def Con from 1.5511e-08 +to 1.5511e-08
Heightened Def Con from 1.69725e-08 to 1.69725e-08
Heightened Def Con from 2.14458e-08 ++++to 2.14458e-08
Heightened Def Con from 2.14458e-08 +to 2.14458e-08
Heightened Def Con from 2.14458e-08 to 2.14458e-08
Heightened Def Con from 2.14458e-08 ++++to 2.14458e-08
Heightened Def Con from 2.14458e-08 to 2.14458e-08
Heightened Def Con from 2.14458e-08 to 2.14458e-08
Heightened Def Con from 2.14458e-08 +++to 2.14458e-08
Heightened Def Con from 2.14458e-08 to 2.14458e-08
Heightened Def Con from 2.14458e-08 +++to 2.14458e-08
Heightened Def Con from 2.14458e-08 to 2.14458e-08
Heightened Def Con from 2.14458e-08 ++to 2.14458e-08
Heightened Def Con from 2.14458e-08 +++to 2.14458e-08
Heightened Def Con from 2.14458e-08 +to 2.14458e-08
Heightened Def Con from 2.14458e-08 to 2.14458e-08
Heightened Def Con from 2.14458e-08 +++to 2.14458e-08
Heightened Def Con from 2.14458e-08 ++to 2.14458e-08
Heightened Def Con from 2.14458e-08 to 2.14458e-08
Heightened Def Con from 2.14458e-08 +to 2.14458e-08
Heightened Def Con from 2.14458e-08 to 2.14458e-08
Heightened Def Con from 2.14458e-08 to 2.14458e-08
Heightened Def Con from 2.14458e-08 +to 2.14458e-08
Heightened Def Con from 2.14458e-08 to 2.14458e-08
Heightened Def Con from 2.14458e-08 +++++to 2.14458e-08
Heightened Def Con from 2.14458e-08 +to 2.14458e-08
Heightened Def Con from 2.14458e-08 to 2.14458e-08
Heightened Def Con from 2.14458e-08 +to 2.14458e-08
Heightened Def Con from 2.14458e-08 +to 2.14458e-08
Heightened Def Con from 2.14458e-08 ++++to 2.14458e-08
Heightened Def Con from 2.14458e-08 ++++to 2.14458e-08
Heightened Def Con from 2.14458e-08 +to 2.14458e-08
Heightened Def Con from 2.14458e-08 +to 2.14458e-08
Heightened Def Con from 2.14458e-08 to 2.14458e-08
Heightened Def Con from 2.14458e-08 +to 2.14458e-08
Heightened Def Con from 2.14458e-08 ++++to 2.14458e-08
Heightened Def Con from 2.14458e-08 +++to 2.14458e-08
Heightened Def Con from 2.14458e-08 to 2.14458e-08
Heightened Def Con from 2.14458e-08 ++++++to 2.14458e-08
Heightened Def Con from 2.14458e-08 ++to 2.14458e-08
Heightened Def Con from 2.14458e-08 +++to 2.14458e-08
Heightened Def Con from 2.14458e-08 to 2.14458e-08
Heightened Def Con from 2.14458e-08 to 2.14458e-08
Heightened Def Con from 2.14458e-08 to 2.14458e-08
Heightened Def Con from 2.14458e-08 +++to 2.14458e-08
Heightened Def Con from 2.14458e-08 to 2.14458e-08
Heightened Def Con from 2.14458e-08 ++++to 2.14458e-08
Heightened Def Con from 2.14458e-08 to 2.14458e-08
Heightened Def Con from 2.14458e-08 ++to 2.14458e-08
Heightened Def Con from 2.14458e-08 +++to 2.14458e-08
Heightened Def Con from 2.14458e-08 +to 2.14458e-08
Heightened Def Con from 2.14458e-08 +++++to 2.14458e-08
Heightened Def Con from 2.14458e-08 to 2.14458e-08
Heightened Def Con from 2.14458e-08 to 2.14458e-08
Heightened Def Con from 2.14458e-08 ++to 2.14458e-08
Heightened Def Con from 2.14458e-08 to 2.14458e-08
Heightened Def Con from 2.14458e-08 to 2.14458e-08
Heightened Def Con from 2.14458e-08 +to 2.14458e-08
Heightened Def Con from 2.14458e-08 ++to 2.14458e-08
Heightened Def Con from 2.14458e-08 ++++to 2.14458e-08
Heightened Def Con from 2.14458e-08 +to 2.14458e-08
Heightened Def Con from 2.14458e-08 ++to 2.14458e-08
Heightened Def Con from 2.14458e-08 to 2.14458e-08
Heightened Def Con from 2.14458e-08 ++to 2.14458e-08
Heightened Def Con from 2.14458e-08 to 2.14458e-08
Heightened Def Con from 2.14458e-08 +to 2.14458e-08
Heightened Def Con from 2.14458e-08 ++to 2.14458e-08
Heightened Def Con from 2.14458e-08 ++to 2.14458e-08
Heightened Def Con from 2.14458e-08 +to 2.14458e-08
Heightened Def Con from 2.14458e-08 ++++to 2.14458e-08
Heightened Def Con from 2.14458e-08 +++++to 2.14458e-08
Heightened Def Con from 2.14458e-08 +to 2.14458e-08
Heightened Def Con from 2.14458e-08 to 2.14458e-08
Heightened Def Con from 2.14458e-08 to 2.14458e-08
Heightened Def Con from 2.14458e-08 to 2.14458e-08
Heightened Def Con from 2.14458e-08 +++++to 2.14458e-08
Heightened Def Con from 2.14458e-08 to 2.14458e-08
Heightened Def Con from 2.14458e-08 +++to 2.14458e-08
Heightened Def Con from 2.14458e-08 to 2.14458e-08
Heightened Def Con from 2.14458e-08 +to 2.14458e-08
Heightened Def Con from 2.14458e-08 to 2.14458e-08
Heightened Def Con from 2.14458e-08 +++++to 2.14458e-08
Heightened Def Con from 2.14458e-08 to 2.14458e-08
Heightened Def Con from 2.14458e-08 to 2.14458e-08
Heightened Def Con from 2.14458e-08 ++to 2.14458e-08
Heightened Def Con from 2.14458e-08 to 2.14458e-08
Heightened Def Con from 2.14458e-08 to 2.14458e-08
Heightened Def Con from 2.14458e-08 +to 2.14458e-08
Heightened Def Con from 2.14458e-08 +to 2.14458e-08
Heightened Def Con from 2.14458e-08 to 2.14458e-08
Heightened Def Con from 2.14458e-08 ++++to 2.14458e-08
Heightened Def Con from 2.14458e-08 ++++to 2.14458e-08
Heightened Def Con from 2.14458e-08 +to 2.14458e-08
Heightened Def Con from 2.14458e-08 +to 2.14458e-08
Heightened Def Con from 2.14458e-08 to 2.14458e-08
Heightened Def Con from 2.14458e-08 to 2.14458e-08
Heightened Def Con from 2.14458e-08 +to 2.14458e-08
Heightened Def Con from 2.14458e-08 to 2.14458e-08
Heightened Def Con from 2.14458e-08 to 2.14458e-08
Heightened Def Con from 2.14458e-08 to 2.14458e-08
Heightened Def Con from 2.14458e-08 to 2.14458e-08
Heightened Def Con from 2.14458e-08 to 2.14458e-08
Heightened Def Con from 2.14458e-08 to 2.14458e-08
Heightened Def Con from 2.14458e-08 +to 2.14458e-08
Heightened Def Con from 2.14458e-08 to 2.14458e-08
Heightened Def Con from 2.14458e-08 +to 2.14458e-08
Heightened Def Con from 2.14458e-08 +to 2.14458e-08
Heightened Def Con from 2.14458e-08 to 2.14458e-08
Heightened Def Con from 2.14458e-08 ++++++to 2.14458e-08
Heightened Def Con from 2.14458e-08 to 2.14458e-08
Heightened Def Con from 2.14458e-08 ++++++to 2.14458e-08
Heightened Def Con from 2.14458e-08 to 2.14458e-08
Heightened Def Con from 2.14458e-08 ++++++to 2.14458e-08
Heightened Def Con from 2.14458e-08 +to 2.14458e-08
Heightened Def Con from 2.14458e-08 +++to 2.14458e-08
Heightened Def Con from 2.14458e-08 +++to 2.14458e-08
Heightened Def Con from 2.14458e-08 to 2.14458e-08
Heightened Def Con from 2.14458e-08 +to 2.14458e-08
Heightened Def Con from 2.14458e-08 +to 2.14458e-08
Heightened Def Con from 2.14458e-08 to 2.14458e-08
Heightened Def Con from 2.14458e-08 +++to 2.14458e-08
Heightened Def Con from 2.14458e-08 +to 2.14458e-08
Heightened Def Con from 2.14458e-08 to 2.14458e-08
Heightened Def Con from 2.14458e-08 ++to 2.14458e-08
Heightened Def Con from 2.14458e-08 +to 2.14458e-08
Heightened Def Con from 2.14458e-08 ++to 2.14458e-08
Heightened Def Con from 2.14458e-08 +to 2.14458e-08
Heightened Def Con from 2.14458e-08 ++++to 2.14458e-08
Heightened Def Con from 2.14458e-08 +++to 2.14458e-08
Heightened Def Con from 2.14458e-08 to 2.14458e-08
Heightened Def Con from 2.14458e-08 ++to 2.14458e-08
Heightened Def Con from 2.14458e-08 ++++++++to 2.14458e-08
Heightened Def Con from 2.19381e-08 to 2.19381e-08
Heightened Def Con from 2.19381e-08 to 2.19381e-08
Heightened Def Con from 2.19381e-08 to 2.19381e-08
Heightened Def Con from 2.19381e-08 to 2.19381e-08
Heightened Def Con from 2.19381e-08 +to 2.19381e-08
Heightened Def Con from 2.19381e-08 ++to 2.19381e-08
Heightened Def Con from 2.19381e-08 +to 2.19381e-08
Heightened Def Con from 2.19381e-08 +to 2.19381e-08
Heightened Def Con from 2.19381e-08 to 2.19381e-08
Heightened Def Con from 2.19381e-08 to 2.19381e-08
Heightened Def Con from 2.19381e-08 to 2.19381e-08
Heightened Def Con from 2.19381e-08 to 2.19381e-08
Heightened Def Con from 2.19381e-08 +to 2.19381e-08
Heightened Def Con from 2.19381e-08 +++++++++++++++++++to 2.19381e-08
Heightened Def Con from 2.29029e-08 to 2.29029e-08
Heightened Def Con from 2.29029e-08 to 2.29029e-08
Heightened Def Con from 2.29029e-08 to 2.29029e-08
Heightened Def Con from 2.29029e-08 to 2.29029e-08
Heightened Def Con from 2.29029e-08 +to 2.29029e-08
Heightened Def Con from 2.29029e-08 +to 2.29029e-08
Heightened Def Con from 2.29029e-08 ++to 2.29029e-08
Heightened Def Con from 2.29029e-08 to 2.29029e-08
Heightened Def Con from 2.29029e-08 to 2.29029e-08
Heightened Def Con from 2.29029e-08 to 2.29029e-08
Heightened Def Con from 2.29029e-08 to 2.29029e-08
Heightened Def Con from 2.29029e-08 to 2.29029e-08
Heightened Def Con from 2.29029e-08 to 2.29029e-08
Heightened Def Con from 2.29029e-08 to 2.29029e-08
Heightened Def Con from 2.29029e-08 to 2.29029e-08
Heightened Def Con from 2.29029e-08 to 2.29029e-08
Heightened Def Con from 2.29029e-08 to 2.29029e-08
Heightened Def Con from 2.29029e-08 +to 2.29029e-08
Heightened Def Con from 2.29029e-08 to 2.29029e-08
Heightened Def Con from 2.29029e-08 to 2.29029e-08
Heightened Def Con from 2.29029e-08 to 2.29029e-08
Heightened Def Con from 2.29029e-08 +to 2.29029e-08
Heightened Def Con from 2.29029e-08 to 2.29029e-08
Heightened Def Con from 2.29029e-08 to 2.29029e-08
Heightened Def Con from 2.29029e-08 to 2.29029e-08
Heightened Def Con from 2.29029e-08 to 2.29029e-08
Heightened Def Con from 2.29029e-08 to 2.29029e-08
Heightened Def Con from 2.29029e-08 to 2.29029e-08
Heightened Def Con from 2.29029e-08 to 2.29029e-08
Heightened Def Con from 2.29029e-08 ++++to 2.29029e-08
Heightened Def Con from 2.29029e-08 to 2.29029e-08
Heightened Def Con from 2.29029e-08 to 2.29029e-08
Heightened Def Con from 2.29029e-08 to 2.29029e-08
Heightened Def Con from 2.29029e-08 to 2.29029e-08
Heightened Def Con from 2.29029e-08 to 2.29029e-08
Heightened Def Con from 2.29029e-08 to 2.29029e-08
Heightened Def Con from 2.29029e-08 +to 2.29029e-08
Heightened Def Con from 2.29029e-08 +to 2.29029e-08
Heightened Def Con from 2.29029e-08 to 2.29029e-08
Heightened Def Con from 2.29029e-08 +to 2.29029e-08
Heightened Def Con from 2.29029e-08 +to 2.29029e-08
Heightened Def Con from 2.29029e-08 +to 2.29029e-08
Heightened Def Con from 2.29029e-08 ++to 2.29029e-08
Heightened Def Con from 2.29029e-08 to 2.29029e-08
Heightened Def Con from 2.29029e-08 to 2.29029e-08
Heightened Def Con from 2.29029e-08 to 2.29029e-08
Heightened Def Con from 2.29029e-08 to 2.29029e-08
Heightened Def Con from 2.29029e-08 to 2.29029e-08
Heightened Def Con from 2.29029e-08 +to 2.29029e-08
Heightened Def Con from 2.29029e-08 +++to 2.29029e-08
Heightened Def Con from 2.29029e-08 to 2.29029e-08
Heightened Def Con from 2.29029e-08 to 2.29029e-08
Heightened Def Con from 2.29029e-08 to 2.29029e-08
Heightened Def Con from 2.29029e-08 to 2.29029e-08
Heightened Def Con from 2.29029e-08 to 2.29029e-08
Heightened Def Con from 2.29029e-08 +to 2.29029e-08
Heightened Def Con from 2.29029e-08 +to 2.29029e-08
Heightened Def Con from 2.29029e-08 to 2.29029e-08
Heightened Def Con from 2.29029e-08 to 2.29029e-08
Heightened Def Con from 2.29029e-08 to 2.29029e-08
Heightened Def Con from 2.29029e-08 to 2.29029e-08
Heightened Def Con from 2.29029e-08 to 2.29029e-08
Heightened Def Con from 2.29029e-08 to 2.29029e-08
Heightened Def Con from 2.29029e-08 to 2.29029e-08
Heightened Def Con from 2.29029e-08 to 2.29029e-08
Heightened Def Con from 2.29029e-08 to 2.29029e-08
Heightened Def Con from 2.29029e-08 +to 2.29029e-08
Heightened Def Con from 2.29029e-08 +to 2.29029e-08
Heightened Def Con from 2.29029e-08 to 2.29029e-08
Heightened Def Con from 2.29029e-08 to 2.29029e-08
Heightened Def Con from 2.29029e-08 to 2.29029e-08
Heightened Def Con from 2.29029e-08 to 2.29029e-08
Heightened Def Con from 2.29029e-08 to 2.29029e-08
Heightened Def Con from 2.29029e-08 to 2.29029e-08
Heightened Def Con from 2.29029e-08 to 2.29029e-08
Heightened Def Con from 2.29029e-08 to 2.29029e-08
Heightened Def Con from 2.29029e-08 to 2.29029e-08
Heightened Def Con from 2.29029e-08 to 2.29029e-08
Heightened Def Con from 2.29029e-08 to 2.29029e-08
Heightened Def Con from 2.29029e-08 to 2.29029e-08
Heightened Def Con from 2.29029e-08 to 2.29029e-08
Heightened Def Con from 2.29029e-08 to 2.29029e-08
Heightened Def Con from 2.29029e-08 to 2.29029e-08
Heightened Def Con from 2.29029e-08 to 2.29029e-08
Heightened Def Con from 2.29029e-08 to 2.29029e-08
Heightened Def Con from 2.29029e-08 to 2.29029e-08
Heightened Def Con from 2.29029e-08 to 2.29029e-08
Heightened Def Con from 2.29029e-08 to 2.29029e-08
Heightened Def Con from 2.29029e-08 to 2.29029e-08
Heightened Def Con from 2.29029e-08 to 2.29029e-08
Heightened Def Con from 2.29029e-08 to 2.29029e-08
Heightened Def Con from 2.29029e-08 ++to 2.29029e-08
Heightened Def Con from 2.29029e-08 +to 2.29029e-08
Heightened Def Con from 2.29029e-08 to 2.29029e-08
Heightened Def Con from 2.29029e-08 to 2.29029e-08
Heightened Def Con from 2.29029e-08 to 2.29029e-08
Heightened Def Con from 2.29029e-08 ++to 2.29029e-08
Heightened Def Con from 2.29029e-08 ++to 2.29029e-08
Heightened Def Con from 2.29029e-08 +to 2.29029e-08
Heightened Def Con from 2.29029e-08 to 2.29029e-08
Heightened Def Con from 2.29029e-08 ++to 2.29029e-08
Heightened Def Con from 2.29029e-08 +to 2.29029e-08
Heightened Def Con from 2.29029e-08 to 2.29029e-08
Heightened Def Con from 2.29029e-08 to 2.29029e-08
Heightened Def Con from 2.29029e-08 to 2.29029e-08
Heightened Def Con from 2.29029e-08 ++to 2.29029e-08
Heightened Def Con from 2.29029e-08 to 2.29029e-08
Heightened Def Con from 2.29029e-08 to 2.29029e-08
Heightened Def Con from 2.29029e-08 to 2.29029e-08
Heightened Def Con from 2.29029e-08 to 2.29029e-08
Heightened Def Con from 2.29029e-08 ++to 2.29029e-08
Heightened Def Con from 2.29029e-08 +++++++++++++++++++to 2.29031e-08
Heightened Def Con from 2.35273e-08 to 2.35273e-08
Heightened Def Con from 2.35273e-08 to 2.35273e-08
Heightened Def Con from 2.35273e-08 to 2.35273e-08
Heightened Def Con from 2.35273e-08 to 2.35273e-08
Heightened Def Con from 2.35273e-08 to 2.35273e-08
Heightened Def Con from 2.35273e-08 to 2.35273e-08
Heightened Def Con from 2.35273e-08 ++to 2.35273e-08
Heightened Def Con from 2.35273e-08 to 2.35273e-08
Heightened Def Con from 2.35273e-08 to 2.35273e-08
Heightened Def Con from 2.35273e-08 to 2.35273e-08
Heightened Def Con from 2.35273e-08 to 2.35273e-08
Heightened Def Con from 2.35273e-08 to 2.35273e-08
Heightened Def Con from 2.35273e-08 to 2.35273e-08
Heightened Def Con from 2.35273e-08 to 2.35273e-08
Heightened Def Con from 2.35273e-08 +to 2.35273e-08
Heightened Def Con from 2.35273e-08 to 2.35273e-08
Heightened Def Con from 2.35273e-08 +++to 2.35273e-08
Heightened Def Con from 2.35273e-08 to 2.35273e-08
Heightened Def Con from 2.35273e-08 to 2.35273e-08
Heightened Def Con from 2.35273e-08 to 2.35273e-08
Heightened Def Con from 2.35273e-08 to 2.35273e-08
Heightened Def Con from 2.35273e-08 to 2.35273e-08
Heightened Def Con from 2.35273e-08 to 2.35273e-08
Heightened Def Con from 2.35273e-08 to 2.35273e-08
Heightened Def Con from 2.35273e-08 to 2.35273e-08
Heightened Def Con from 2.35273e-08 to 2.35273e-08
Heightened Def Con from 2.35273e-08 ++to 2.35273e-08
Heightened Def Con from 2.35273e-08 +to 2.35273e-08
Heightened Def Con from 2.35273e-08 +to 2.35273e-08
Heightened Def Con from 2.35273e-08 to 2.35273e-08
Heightened Def Con from 2.35273e-08 to 2.35273e-08
Heightened Def Con from 2.35273e-08 to 2.35273e-08
Heightened Def Con from 2.35273e-08 +to 2.35273e-08
Heightened Def Con from 2.35273e-08 to 2.35273e-08
Heightened Def Con from 2.35273e-08 to 2.35273e-08
Heightened Def Con from 2.35273e-08 to 2.35273e-08
Heightened Def Con from 2.35273e-08 to 2.35273e-08
Heightened Def Con from 2.35273e-08 to 2.35273e-08
Heightened Def Con from 2.35273e-08 +to 2.35273e-08
Heightened Def Con from 2.35273e-08 to 2.35273e-08
Heightened Def Con from 2.35273e-08 to 2.35273e-08
Heightened Def Con from 2.35273e-08 to 2.35273e-08
Heightened Def Con from 2.35273e-08 to 2.35273e-08
Heightened Def Con from 2.35273e-08 to 2.35273e-08
Heightened Def Con from 2.35273e-08 to 2.35273e-08
Heightened Def Con from 2.35273e-08 to 2.35273e-08
Heightened Def Con from 2.35273e-08 +to 2.35273e-08
Heightened Def Con from 2.35273e-08 to 2.35273e-08
Heightened Def Con from 2.35273e-08 to 2.35273e-08
Heightened Def Con from 2.35273e-08 to 2.35273e-08
Heightened Def Con from 2.35273e-08 ++++++to 2.35273e-08
Heightened Def Con from 2.35273e-08 +to 2.35273e-08
Heightened Def Con from 2.35273e-08 to 2.35273e-08
Heightened Def Con from 2.35273e-08 to 2.35273e-08
Heightened Def Con from 2.35273e-08 to 2.35273e-08
Heightened Def Con from 2.35273e-08 ++to 2.35273e-08
Heightened Def Con from 2.35273e-08 to 2.35273e-08
Heightened Def Con from 2.35273e-08 to 2.35273e-08
Heightened Def Con from 2.35273e-08 +to 2.35273e-08
Heightened Def Con from 2.35273e-08 to 2.35273e-08
Heightened Def Con from 2.35273e-08 to 2.35273e-08
Heightened Def Con from 2.35273e-08 to 2.35273e-08
Heightened Def Con from 2.35273e-08 to 2.35273e-08
Heightened Def Con from 2.35273e-08 to 2.35273e-08
Heightened Def Con from 2.35273e-08 to 2.35273e-08
Heightened Def Con from 2.35273e-08 ++to 2.35273e-08
Heightened Def Con from 2.35273e-08 to 2.35273e-08
Heightened Def Con from 2.35273e-08 +to 2.35273e-08
Heightened Def Con from 2.35273e-08 to 2.35273e-08
Heightened Def Con from 2.35273e-08 ++to 2.35273e-08
Heightened Def Con from 2.35273e-08 to 2.35273e-08
Heightened Def Con from 2.35273e-08 to 2.35273e-08
Heightened Def Con from 2.35273e-08 to 2.35273e-08
Heightened Def Con from 2.35273e-08 +to 2.35273e-08
Heightened Def Con from 2.35273e-08 to 2.35273e-08
Heightened Def Con from 2.35273e-08 to 2.35273e-08
Heightened Def Con from 2.35273e-08 ++to 2.35273e-08
Heightened Def Con from 2.35273e-08 to 2.35273e-08
Heightened Def Con from 2.35273e-08 to 2.35273e-08
Heightened Def Con from 2.35273e-08 to 2.35273e-08
Heightened Def Con from 2.35273e-08 to 2.35273e-08
Heightened Def Con from 2.35273e-08 to 2.35273e-08
Heightened Def Con from 2.35273e-08 to 2.35273e-08
Heightened Def Con from 2.35273e-08 ++to 2.35273e-08
Heightened Def Con from 2.35273e-08 +to 2.35273e-08
Heightened Def Con from 2.35273e-08 to 2.35273e-08
Heightened Def Con from 2.35273e-08 to 2.35273e-08
Heightened Def Con from 2.35273e-08 to 2.35273e-08
Heightened Def Con from 2.35273e-08 ++to 2.35273e-08
Heightened Def Con from 2.35273e-08 +++++to 2.35273e-08
Heightened Def Con from 2.35273e-08 +to 2.35273e-08
Heightened Def Con from 2.35273e-08 to 2.35273e-08
Heightened Def Con from 2.35273e-08 to 2.35273e-08
Heightened Def Con from 2.35273e-08 to 2.35273e-08
Heightened Def Con from 2.35273e-08 to 2.35273e-08
Heightened Def Con from 2.35273e-08 +to 2.35273e-08
Heightened Def Con from 2.35273e-08 to 2.35273e-08
Heightened Def Con from 2.35273e-08 to 2.35273e-08
Heightened Def Con from 2.35273e-08 to 2.35273e-08
Heightened Def Con from 2.35273e-08 to 2.35273e-08
Heightened Def Con from 2.35273e-08 to 2.35273e-08
Heightened Def Con from 2.35273e-08 ++to 2.35273e-08
Heightened Def Con from 2.35273e-08 to 2.35273e-08
Heightened Def Con from 2.35273e-08 +to 2.35273e-08
Heightened Def Con from 2.35273e-08 ++to 2.35273e-08
Heightened Def Con from 2.35273e-08 to 2.35273e-08
Heightened Def Con from 2.35273e-08 to 2.35273e-08
Heightened Def Con from 2.35273e-08 ++to 2.35273e-08
Heightened Def Con from 2.35273e-08 to 2.35273e-08
Heightened Def Con from 2.35273e-08 to 2.35273e-08
Heightened Def Con from 2.35273e-08 to 2.35273e-08
Heightened Def Con from 2.35273e-08 ++to 2.35273e-08
Heightened Def Con from 2.35273e-08 to 2.35273e-08
Heightened Def Con from 2.35273e-08 ++to 2.35273e-08
Heightened Def Con from 2.35273e-08 ++to 2.35273e-08
Heightened Def Con from 2.35273e-08 +to 2.35273e-08
Heightened Def Con from 2.35273e-08 to 2.35273e-08
Heightened Def Con from 2.35273e-08 to 2.35273e-08
Heightened Def Con from 2.35273e-08 ++to 2.35273e-08
Heightened Def Con from 2.35273e-08 to 2.35273e-08
Heightened Def Con from 2.35273e-08 to 2.35273e-08
Heightened Def Con from 2.35273e-08 to 2.35273e-08
Heightened Def Con from 2.35273e-08 ++to 2.35273e-08
Heightened Def Con from 2.35273e-08 to 2.35273e-08
Heightened Def Con from 2.35273e-08 to 2.35273e-08
Heightened Def Con from 2.35273e-08 ++to 2.35273e-08
Heightened Def Con from 2.35273e-08 to 2.35273e-08
Heightened Def Con from 2.35273e-08 ++to 2.35273e-08
Heightened Def Con from 2.35273e-08 to 2.35273e-08
Heightened Def Con from 2.35273e-08 to 2.35273e-08
Heightened Def Con from 2.35273e-08 ++to 2.35273e-08
Heightened Def Con from 2.35273e-08 ++to 2.35273e-08
Heightened Def Con from 2.35273e-08 to 2.35273e-08
Heightened Def Con from 2.35273e-08 to 2.35273e-08
Heightened Def Con from 2.35273e-08 to 2.35273e-08
Heightened Def Con from 2.35273e-08 to 2.35273e-08
Heightened Def Con from 2.35273e-08 to 2.35273e-08
Heightened Def Con from 2.35273e-08 +to 2.35273e-08
Heightened Def Con from 2.35273e-08 to 2.35273e-08
Heightened Def Con from 2.35273e-08 to 2.35273e-08
Heightened Def Con from 2.35273e-08 ++++++to 2.35273e-08
Heightened Def Con from 2.35273e-08 to 2.35273e-08
Heightened Def Con from 2.35273e-08 +to 2.35273e-08
Heightened Def Con from 2.35273e-08 +to 2.35273e-08
Heightened Def Con from 2.35273e-08 to 2.35273e-08
Heightened Def Con from 2.35273e-08 +to 2.35273e-08
Heightened Def Con from 2.35273e-08 to 2.35273e-08
Heightened Def Con from 2.35273e-08 to 2.35273e-08
Heightened Def Con from 2.35273e-08 to 2.35273e-08
Heightened Def Con from 2.35273e-08 to 2.35273e-08
Heightened Def Con from 2.35273e-08 +to 2.35273e-08
Heightened Def Con from 2.35273e-08 to 2.35273e-08
Heightened Def Con from 2.35273e-08 +to 2.35273e-08
Heightened Def Con from 2.35273e-08 to 2.35273e-08
Heightened Def Con from 2.35273e-08 to 2.35273e-08
Heightened Def Con from 2.35273e-08 +++to 2.35273e-08
Heightened Def Con from 2.35273e-08 ++to 2.35273e-08
Heightened Def Con from 2.35273e-08 +to 2.35273e-08
Heightened Def Con from 2.35273e-08 to 2.35273e-08
Heightened Def Con from 2.35273e-08 to 2.35273e-08
Heightened Def Con from 2.35273e-08 to 2.35273e-08
Heightened Def Con from 2.35273e-08 to 2.35273e-08
Heightened Def Con from 2.35273e-08 ++to 2.35273e-08
Heightened Def Con from 2.35273e-08 to 2.35273e-08
Heightened Def Con from 2.35273e-08 to 2.35273e-08
Heightened Def Con from 2.35273e-08 to 2.35273e-08
Heightened Def Con from 2.35273e-08 +to 2.35273e-08
Heightened Def Con from 2.35273e-08 to 2.35273e-08
Heightened Def Con from 2.35273e-08 +to 2.35273e-08
Heightened Def Con from 2.35273e-08 +to 2.35273e-08
Heightened Def Con from 2.35273e-08 to 2.35273e-08
Heightened Def Con from 2.35273e-08 to 2.35273e-08
Heightened Def Con from 2.35273e-08 ++to 2.35273e-08
Heightened Def Con from 2.35273e-08 to 2.35273e-08
Heightened Def Con from 2.35273e-08 +to 2.35273e-08
Heightened Def Con from 2.35273e-08 to 2.35273e-08
Heightened Def Con from 2.35273e-08 to 2.35273e-08
Heightened Def Con from 2.35273e-08 +to 2.35273e-08
Heightened Def Con from 2.35273e-08 to 2.35273e-08
Heightened Def Con from 2.35273e-08 ++to 2.35273e-08
Heightened Def Con from 2.35273e-08 to 2.35273e-08
Heightened Def Con from 2.35273e-08 to 2.35273e-08
Heightened Def Con from 2.35273e-08 ++to 2.35273e-08
Heightened Def Con from 2.35273e-08 to 2.35273e-08
Heightened Def Con from 2.35273e-08 +to 2.35273e-08
Heightened Def Con from 2.35273e-08 +to 2.35273e-08
Heightened Def Con from 2.35273e-08 ++++++to 2.35273e-08
Heightened Def Con from 2.35273e-08 +to 2.35273e-08
Heightened Def Con from 2.35273e-08 +to 2.35273e-08
Heightened Def Con from 2.35273e-08 ++++to 2.35273e-08
Heightened Def Con from 2.35273e-08 to 2.35273e-08
Heightened Def Con from 2.35273e-08 to 2.35273e-08
Heightened Def Con from 2.35273e-08 to 2.35273e-08
Heightened Def Con from 2.35273e-08 to 2.35273e-08
Heightened Def Con from 2.35273e-08 ++to 2.35273e-08
Heightened Def Con from 2.35273e-08 to 2.35273e-08
Heightened Def Con from 2.35273e-08 to 2.35273e-08
Heightened Def Con from 2.35273e-08 +++to 2.35273e-08
Heightened Def Con from 2.35273e-08 ++to 2.35273e-08
Heightened Def Con from 2.35273e-08 ++to 2.35273e-08
Heightened Def Con from 2.35273e-08 to 2.35273e-08
Heightened Def Con from 2.35273e-08 +to 2.35273e-08
Heightened Def Con from 2.35273e-08 ++++to 2.35273e-08
Heightened Def Con from 2.35273e-08 ++++to 2.35273e-08
Heightened Def Con from 2.35273e-08 +to 2.35273e-08
Heightened Def Con from 2.35273e-08 to 2.35273e-08
Heightened Def Con from 2.35273e-08 +to 2.35273e-08
Heightened Def Con from 2.35273e-08 +to 2.35273e-08
Heightened Def Con from 2.35273e-08 +to 2.35273e-08
Heightened Def Con from 2.35273e-08 to 2.35273e-08
Heightened Def Con from 2.35273e-08 +to 2.35273e-08
Heightened Def Con from 2.35273e-08 +to 2.35273e-08
Heightened Def Con from 2.35273e-08 to 2.35273e-08
Heightened Def Con from 2.35273e-08 +to 2.35273e-08
Heightened Def Con from 2.35273e-08 to 2.35273e-08
Heightened Def Con from 2.35273e-08 +to 2.35273e-08
Heightened Def Con from 2.35273e-08 to 2.35273e-08
Heightened Def Con from 2.35273e-08 +to 2.35273e-08
Heightened Def Con from 2.35273e-08 to 2.35273e-08
Heightened Def Con from 2.35273e-08 to 2.35273e-08
Heightened Def Con from 2.35273e-08 to 2.35273e-08
Heightened Def Con from 2.35273e-08 to 2.35273e-08
Heightened Def Con from 2.35273e-08 +to 2.35273e-08
Heightened Def Con from 2.35273e-08 to 2.35273e-08
Heightened Def Con from 2.35273e-08 +to 2.35273e-08
Heightened Def Con from 2.35273e-08 to 2.35273e-08
Heightened Def Con from 2.35273e-08 +to 2.35273e-08
Heightened Def Con from 2.35273e-08 to 2.35273e-08
Heightened Def Con from 2.35273e-08 ++to 2.35273e-08
Heightened Def Con from 2.35273e-08 to 2.35273e-08
Heightened Def Con from 2.35273e-08 to 2.35273e-08
Heightened Def Con from 2.35273e-08 to 2.35273e-08
Heightened Def Con from 2.35273e-08 to 2.35273e-08
Heightened Def Con from 2.35273e-08 to 2.35273e-08
Heightened Def Con from 2.35273e-08 to 2.35273e-08
Heightened Def Con from 2.35273e-08 ++to 2.35273e-08
Heightened Def Con from 2.35273e-08 to 2.35273e-08
Heightened Def Con from 2.35273e-08 to 2.35273e-08
Heightened Def Con from 2.35273e-08 +to 2.35273e-08
Heightened Def Con from 2.35273e-08 to 2.35273e-08
Heightened Def Con from 2.35273e-08 to 2.35273e-08
Heightened Def Con from 2.35273e-08 ++to 2.35273e-08
Heightened Def Con from 2.35273e-08 to 2.35273e-08
Heightened Def Con from 2.35273e-08 ++to 2.35273e-08
Heightened Def Con from 2.35273e-08 ++to 2.35273e-08
Heightened Def Con from 2.35273e-08 to 2.35273e-08
Heightened Def Con from 2.35273e-08 to 2.35273e-08
Heightened Def Con from 2.35273e-08 to 2.35273e-08
Heightened Def Con from 2.35273e-08 to 2.35273e-08
Heightened Def Con from 2.35273e-08 to 2.35273e-08
Heightened Def Con from 2.35273e-08 to 2.35273e-08
Heightened Def Con from 2.35273e-08 ++to 2.35273e-08
Heightened Def Con from 2.35273e-08 to 2.35273e-08
Heightened Def Con from 2.35273e-08 ++to 2.35273e-08
Heightened Def Con from 2.35273e-08 to 2.35273e-08
Heightened Def Con from 2.35273e-08 to 2.35273e-08
Heightened Def Con from 2.35273e-08 to 2.35273e-08
Heightened Def Con from 2.35273e-08 +to 2.35273e-08
Heightened Def Con from 2.35273e-08 ++to 2.35273e-08
Heightened Def Con from 2.35273e-08 to 2.35273e-08
Heightened Def Con from 2.35273e-08 to 2.35273e-08
Heightened Def Con from 2.35273e-08 ++to 2.35273e-08
Heightened Def Con from 2.35273e-08 ++to 2.35273e-08
Heightened Def Con from 2.35273e-08 to 2.35273e-08
Heightened Def Con from 2.35273e-08 to 2.35273e-08
Heightened Def Con from 2.35273e-08 to 2.35273e-08
Heightened Def Con from 2.35273e-08 to 2.35273e-08
Heightened Def Con from 2.35273e-08 to 2.35273e-08
Heightened Def Con from 2.35273e-08 +++++to 2.35273e-08
Heightened Def Con from 2.35273e-08 to 2.35273e-08
Heightened Def Con from 2.35273e-08 to 2.35273e-08
Heightened Def Con from 2.35273e-08 +to 2.35273e-08
Heightened Def Con from 2.35273e-08 to 2.35273e-08
Heightened Def Con from 2.35273e-08 ++to 2.35273e-08
Heightened Def Con from 2.35273e-08 to 2.35273e-08
Heightened Def Con from 2.35273e-08 to 2.35273e-08
Heightened Def Con from 2.35273e-08 to 2.35273e-08
Heightened Def Con from 2.35273e-08 to 2.35273e-08
Heightened Def Con from 2.35273e-08 to 2.35273e-08
Heightened Def Con from 2.35273e-08 ++to 2.35273e-08
Heightened Def Con from 2.35273e-08 to 2.35273e-08
Heightened Def Con from 2.35273e-08 ++to 2.35273e-08
Heightened Def Con from 2.35273e-08 ++to 2.35273e-08
Heightened Def Con from 2.35273e-08 +to 2.35273e-08
Heightened Def Con from 2.35273e-08 to 2.35273e-08
Heightened Def Con from 2.35273e-08 to 2.35273e-08
Heightened Def Con from 2.35273e-08 to 2.35273e-08
Heightened Def Con from 2.35273e-08 +to 2.35273e-08
Heightened Def Con from 2.35273e-08 to 2.35273e-08
Heightened Def Con from 2.35273e-08 to 2.35273e-08
Heightened Def Con from 2.35273e-08 to 2.35273e-08
Heightened Def Con from 2.35273e-08 to 2.35273e-08
Heightened Def Con from 2.35273e-08 to 2.35273e-08
Heightened Def Con from 2.35273e-08 to 2.35273e-08
Heightened Def Con from 2.35273e-08 to 2.35273e-08
Heightened Def Con from 2.35273e-08 +++++++++++++++++++to 2.35289e-08
Heightened Def Con from 2.35289e-08 to 2.37289e-08
Heightened Def Con from 2.63664e-08 to 2.63664e-08
Heightened Def Con from 2.63664e-08 +to 2.63664e-08
Heightened Def Con from 2.63664e-08 to 2.63664e-08
Heightened Def Con from 2.71263e-08 to 2.71263e-08
Heightened Def Con from 2.74343e-08 to 2.74343e-08
Heightened Def Con from 2.74343e-08 to 2.74343e-08
Heightened Def Con from 2.74343e-08 +to 2.74343e-08
Heightened Def Con from 2.80539e-08 to 2.80539e-08
Heightened Def Con from 3.28e-08 to 3.28e-08
Heightened Def Con from 3.28e-08 +to 3.28e-08
Heightened Def Con from 3.28e-08 to 3.28e-08
Heightened Def Con from 3.28e-08 ++to 3.28e-08
Heightened Def Con from 3.28e-08 to 3.28e-08
Heightened Def Con from 3.28e-08 to 3.28e-08
Heightened Def Con from 3.28e-08 to 3.28e-08
Heightened Def Con from 3.28e-08 to 3.28e-08
Heightened Def Con from 3.28e-08 to 3.28e-08
Heightened Def Con from 3.28e-08 ++to 3.28e-08
Heightened Def Con from 3.28e-08 to 3.28e-08
Heightened Def Con from 3.28e-08 to 3.28e-08
Heightened Def Con from 3.28e-08 to 3.28e-08
Heightened Def Con from 3.28e-08 +to 3.28e-08
Heightened Def Con from 3.28e-08 to 3.28e-08
Heightened Def Con from 3.28e-08 +to 3.28e-08
Heightened Def Con from 3.28e-08 +to 3.28e-08
Heightened Def Con from 3.28e-08 to 3.28e-08
Heightened Def Con from 3.28e-08 +to 3.28e-08
Heightened Def Con from 3.28e-08 to 3.28e-08
Heightened Def Con from 3.28e-08 to 3.28e-08
Heightened Def Con from 3.28e-08 to 3.28e-08
Heightened Def Con from 3.28e-08 to 3.28e-08
Heightened Def Con from 3.28e-08 +to 3.28e-08
Heightened Def Con from 3.28e-08 to 3.28e-08
Heightened Def Con from 3.28e-08 to 3.28e-08
Heightened Def Con from 3.28e-08 +to 3.28e-08
Heightened Def Con from 3.28e-08 to 3.28e-08
Heightened Def Con from 3.28e-08 +to 3.28e-08
Heightened Def Con from 3.28e-08 +to 3.28e-08
Heightened Def Con from 3.28e-08 +++to 3.28e-08
Heightened Def Con from 3.28e-08 to 3.28e-08
Heightened Def Con from 3.28e-08 to 3.28e-08
Heightened Def Con from 3.28e-08 to 3.28e-08
Heightened Def Con from 3.28e-08 to 3.28e-08
Heightened Def Con from 3.28e-08 +to 3.28e-08
Heightened Def Con from 3.28e-08 to 3.28e-08
Heightened Def Con from 3.28e-08 +++to 3.28e-08
Heightened Def Con from 3.28e-08 to 3.28e-08
Heightened Def Con from 3.28e-08 to 3.28e-08
Heightened Def Con from 3.28e-08 ++++to 3.28e-08
Heightened Def Con from 3.28e-08 +to 3.28e-08
Heightened Def Con from 3.28e-08 to 3.28e-08
Heightened Def Con from 3.28e-08 to 3.28e-08
Heightened Def Con from 3.28e-08 to 3.28e-08
Heightened Def Con from 3.28e-08 +++to 3.28e-08
Heightened Def Con from 3.28e-08 to 3.28e-08
Heightened Def Con from 3.28e-08 +to 3.28e-08
Heightened Def Con from 3.28e-08 to 3.28e-08
Heightened Def Con from 3.28e-08 to 3.28e-08
Heightened Def Con from 3.28e-08 ++to 3.28e-08
Heightened Def Con from 3.28e-08 to 3.28e-08
Heightened Def Con from 3.28e-08 to 3.28e-08
Heightened Def Con from 3.28e-08 to 3.28e-08
Heightened Def Con from 3.28e-08 to 3.28e-08
Heightened Def Con from 3.28e-08 to 3.28e-08
Heightened Def Con from 3.28e-08 to 3.28e-08
Heightened Def Con from 3.28e-08 ++to 3.28e-08
Heightened Def Con from 3.28e-08 +++++to 3.28e-08
Heightened Def Con from 3.28e-08 to 3.28e-08
Heightened Def Con from 3.28e-08 to 3.28e-08
Heightened Def Con from 3.28e-08 +to 3.28e-08
Heightened Def Con from 3.28e-08 to 3.28e-08
Heightened Def Con from 3.28e-08 to 3.28e-08
Heightened Def Con from 3.28e-08 to 3.28e-08
Heightened Def Con from 3.28e-08 to 3.28e-08
Heightened Def Con from 3.28e-08 ++to 3.28e-08
Heightened Def Con from 3.28e-08 ++++to 3.28e-08
Heightened Def Con from 3.28e-08 to 3.28e-08
Heightened Def Con from 3.28e-08 to 3.28e-08
Heightened Def Con from 3.28e-08 +to 3.28e-08
Heightened Def Con from 3.28e-08 +++to 3.28e-08
Heightened Def Con from 3.28e-08 ++++to 3.28e-08
Heightened Def Con from 3.28e-08 +to 3.28e-08
Heightened Def Con from 3.28e-08 +to 3.28e-08
Heightened Def Con from 3.28e-08 to 3.28e-08
Heightened Def Con from 3.28e-08 to 3.28e-08
Heightened Def Con from 3.28e-08 +to 3.28e-08
Heightened Def Con from 3.28e-08 to 3.28e-08
Heightened Def Con from 3.28e-08 to 3.28e-08
Heightened Def Con from 3.28e-08 +to 3.28e-08
Heightened Def Con from 3.28e-08 +to 3.28e-08
Heightened Def Con from 3.28e-08 to 3.28e-08
Heightened Def Con from 3.28e-08 to 3.28e-08
Heightened Def Con from 3.28e-08 to 3.28e-08
Heightened Def Con from 3.28e-08 to 3.28e-08
Heightened Def Con from 3.28e-08 to 3.28e-08
Heightened Def Con from 3.28e-08 ++to 3.28e-08
Heightened Def Con from 3.28e-08 to 3.28e-08
Heightened Def Con from 3.28e-08 to 3.28e-08
Heightened Def Con from 3.28e-08 +++to 3.28e-08
Heightened Def Con from 3.28e-08 +to 3.28e-08
Heightened Def Con from 3.28e-08 ++++to 3.28e-08
Heightened Def Con from 3.28e-08 +to 3.28e-08
Heightened Def Con from 3.28e-08 ++to 3.28e-08
Heightened Def Con from 3.28e-08 to 3.28e-08
Heightened Def Con from 3.28e-08 +to 3.28e-08
Heightened Def Con from 3.28e-08 +to 3.28e-08
Heightened Def Con from 3.28e-08 to 3.28e-08
Heightened Def Con from 3.28e-08 +to 3.28e-08
Heightened Def Con from 3.28e-08 to 3.28e-08
Heightened Def Con from 3.28e-08 ++++to 3.28e-08
Heightened Def Con from 3.28e-08 to 3.28e-08
Heightened Def Con from 3.28e-08 to 3.28e-08
Heightened Def Con from 3.28e-08 to 3.28e-08
Heightened Def Con from 3.28e-08 ++to 3.28e-08
Heightened Def Con from 3.28e-08 ++to 3.28e-08
Heightened Def Con from 3.28e-08 ++to 3.28e-08
Heightened Def Con from 3.28e-08 to 3.28e-08
Heightened Def Con from 3.28e-08 +++++to 3.28e-08
Heightened Def Con from 3.28e-08 +++to 3.28e-08
Heightened Def Con from 3.28e-08 +to 3.28e-08
Heightened Def Con from 3.28e-08 +to 3.28e-08
Heightened Def Con from 3.28e-08 +++to 3.28e-08
Heightened Def Con from 3.28e-08 ++to 3.28e-08
Heightened Def Con from 3.28e-08 ++++to 3.28e-08
Heightened Def Con from 3.28e-08 +to 3.28e-08
Heightened Def Con from 3.28e-08 +to 3.28e-08
Heightened Def Con from 3.28e-08 to 3.28e-08
Heightened Def Con from 3.28e-08 to 3.28e-08
Heightened Def Con from 3.28e-08 to 3.28e-08
Heightened Def Con from 3.28e-08 ++++to 3.28e-08
Heightened Def Con from 3.28e-08 ++++to 3.28e-08
Heightened Def Con from 3.28e-08 ++++to 3.28e-08
Heightened Def Con from 3.28e-08 +to 3.28e-08
Heightened Def Con from 3.28e-08 to 3.28e-08
Heightened Def Con from 3.28e-08 ++to 3.28e-08
Heightened Def Con from 3.28e-08 ++to 3.28e-08
Heightened Def Con from 3.28e-08 to 3.28e-08
Heightened Def Con from 3.28e-08 ++to 3.28e-08
Heightened Def Con from 3.28e-08 +to 3.28e-08
Heightened Def Con from 3.28e-08 to 3.28e-08
Heightened Def Con from 3.28e-08 to 3.28e-08
Heightened Def Con from 3.28e-08 ++++to 3.28e-08
Heightened Def Con from 3.28e-08 +++to 3.28e-08
Heightened Def Con from 3.28e-08 to 3.28e-08
Heightened Def Con from 3.28e-08 +to 3.28e-08
Heightened Def Con from 3.28e-08 +++to 3.28e-08
Heightened Def Con from 3.28e-08 ++to 3.28e-08
Heightened Def Con from 3.28e-08 +to 3.28e-08
Heightened Def Con from 3.28e-08 to 3.28e-08
Heightened Def Con from 3.28e-08 to 3.28e-08
Heightened Def Con from 3.28e-08 ++to 3.28e-08
Heightened Def Con from 3.28e-08 +to 3.28e-08
Heightened Def Con from 3.28e-08 to 3.28e-08
Heightened Def Con from 3.28e-08 +to 3.28e-08
Heightened Def Con from 3.28e-08 +to 3.28e-08
Heightened Def Con from 3.28e-08 +to 3.28e-08
Heightened Def Con from 3.28e-08 +++++to 3.28e-08
Heightened Def Con from 3.31462e-08 to 3.31462e-08
Heightened Def Con from 3.31462e-08 ++to 3.31462e-08
Heightened Def Con from 3.31462e-08 to 3.31462e-08
Heightened Def Con from 3.31462e-08 to 3.31462e-08
Heightened Def Con from 3.31462e-08 to 3.31462e-08
Heightened Def Con from 3.31462e-08 to 3.31462e-08
Heightened Def Con from 3.31462e-08 +to 3.31462e-08
Heightened Def Con from 3.31462e-08 to 3.31462e-08
Heightened Def Con from 3.31462e-08 to 3.31462e-08
Heightened Def Con from 3.31462e-08 ++to 3.31462e-08
Heightened Def Con from 3.31462e-08 +to 3.31462e-08
Heightened Def Con from 3.31462e-08 to 3.31462e-08
Heightened Def Con from 3.31462e-08 to 3.31462e-08
Heightened Def Con from 3.31462e-08 to 3.31462e-08
Heightened Def Con from 3.31462e-08 to 3.31462e-08
Heightened Def Con from 3.31462e-08 +to 3.31462e-08
Heightened Def Con from 3.31462e-08 +to 3.31462e-08
Heightened Def Con from 3.31462e-08 to 3.31462e-08
Heightened Def Con from 3.31462e-08 +to 3.31462e-08
Heightened Def Con from 3.31462e-08 to 3.31462e-08
Heightened Def Con from 3.31462e-08 to 3.31462e-08
Heightened Def Con from 3.31462e-08 +++to 3.31462e-08
Heightened Def Con from 3.31462e-08 ++to 3.31462e-08
Heightened Def Con from 3.31462e-08 +to 3.31462e-08
Heightened Def Con from 3.31462e-08 to 3.31462e-08
Heightened Def Con from 3.31462e-08 +++to 3.31462e-08
Heightened Def Con from 3.31462e-08 to 3.31462e-08
Heightened Def Con from 3.31462e-08 ++to 3.31462e-08
Heightened Def Con from 3.31462e-08 +to 3.31462e-08
Heightened Def Con from 3.31462e-08 to 3.31462e-08
Heightened Def Con from 3.31462e-08 +to 3.31462e-08
Heightened Def Con from 3.31462e-08 to 3.31462e-08
Heightened Def Con from 3.31462e-08 ++to 3.31462e-08
Heightened Def Con from 3.31462e-08 to 3.31462e-08
Heightened Def Con from 3.31462e-08 to 3.31462e-08
Heightened Def Con from 3.31462e-08 ++to 3.31462e-08
Heightened Def Con from 3.31462e-08 ++to 3.31462e-08
Heightened Def Con from 3.31462e-08 to 3.31462e-08
Heightened Def Con from 3.31462e-08 ++to 3.31462e-08
Heightened Def Con from 3.31462e-08 to 3.31462e-08
Heightened Def Con from 3.31462e-08 ++to 3.31462e-08
Heightened Def Con from 3.31462e-08 to 3.31462e-08
Heightened Def Con from 3.31462e-08 ++to 3.31462e-08
Heightened Def Con from 3.31462e-08 +++to 3.31462e-08
Heightened Def Con from 3.31462e-08 +++to 3.31462e-08
Heightened Def Con from 3.31462e-08 +++to 3.31462e-08
Heightened Def Con from 3.31462e-08 +to 3.31462e-08
Heightened Def Con from 3.31462e-08 to 3.31462e-08
Heightened Def Con from 3.31462e-08 ++to 3.31462e-08
Heightened Def Con from 3.31462e-08 to 3.31462e-08
Heightened Def Con from 3.31462e-08 ++to 3.31462e-08
Heightened Def Con from 3.31462e-08 ++to 3.31462e-08
Heightened Def Con from 3.31462e-08 +to 3.31462e-08
Heightened Def Con from 3.31462e-08 to 3.31462e-08
Heightened Def Con from 3.31462e-08 +to 3.31462e-08
Heightened Def Con from 3.31462e-08 +++to 3.31462e-08
Heightened Def Con from 3.31462e-08 +to 3.31462e-08
Heightened Def Con from 3.31462e-08 +to 3.31462e-08
Heightened Def Con from 3.31462e-08 +++to 3.31462e-08
Heightened Def Con from 3.31462e-08 ++to 3.31462e-08
Heightened Def Con from 3.31462e-08 to 3.31462e-08
Heightened Def Con from 3.31462e-08 to 3.31462e-08
Heightened Def Con from 3.31462e-08 +to 3.31462e-08
Heightened Def Con from 3.31462e-08 to 3.31462e-08
Heightened Def Con from 3.31462e-08 +to 3.31462e-08
Heightened Def Con from 3.31462e-08 to 3.31462e-08
Heightened Def Con from 3.31462e-08 ++to 3.31462e-08
Heightened Def Con from 3.31462e-08 to 3.31462e-08
Heightened Def Con from 3.31462e-08 to 3.31462e-08
Heightened Def Con from 3.31462e-08 to 3.31462e-08
Heightened Def Con from 3.31462e-08 ++++to 3.31462e-08
Heightened Def Con from 3.35677e-08 to 3.35677e-08
Heightened Def Con from 3.5241e-08 ++++to 3.5241e-08
Heightened Def Con from 3.57171e-08 ++++to 3.57171e-08
Heightened Def Con from 3.57171e-08 +++to 3.57171e-08
Heightened Def Con from 3.66689e-08 to 3.66689e-08
Heightened Def Con from 3.82118e-08 to 3.82118e-08
Heightened Def Con from 4.14511e-08 ++to 4.14511e-08
Heightened Def Con from 4.14511e-08 +to 4.14511e-08
Heightened Def Con from 4.14511e-08 ++to 4.14511e-08
Heightened Def Con from 4.14511e-08 to 4.14511e-08
Heightened Def Con from 4.14511e-08 +++++to 4.14511e-08
Heightened Def Con from 4.14511e-08 +++to 4.14511e-08
Heightened Def Con from 4.14511e-08 to 4.14511e-08
Heightened Def Con from 4.14511e-08 to 4.14511e-08
Heightened Def Con from 4.14511e-08 to 4.14511e-08
Heightened Def Con from 4.14511e-08 +++to 4.14511e-08
Heightened Def Con from 4.14511e-08 +++to 4.14511e-08
Heightened Def Con from 4.14511e-08 +++to 4.14511e-08
Heightened Def Con from 4.14511e-08 +to 4.14511e-08
Heightened Def Con from 4.14511e-08 +++to 4.14511e-08
Heightened Def Con from 4.14511e-08 +++to 4.14511e-08
Heightened Def Con from 4.14511e-08 to 4.14511e-08
Heightened Def Con from 4.14511e-08 +to 4.14511e-08
Heightened Def Con from 4.14511e-08 +++++++to 4.14511e-08
Heightened Def Con from 4.22784e-08 to 4.22784e-08
Heightened Def Con from 4.22784e-08 to 4.22784e-08
Heightened Def Con from 4.22784e-08 +to 4.22784e-08
Heightened Def Con from 4.22784e-08 ++to 4.22784e-08
Heightened Def Con from 4.22784e-08 to 4.22784e-08
Heightened Def Con from 4.22784e-08 ++++++++to 4.22784e-08
Heightened Def Con from 4.22784e-08 to 4.22784e-08
Heightened Def Con from 4.22784e-08 to 4.22784e-08
Heightened Def Con from 4.22784e-08 to 4.22784e-08
Heightened Def Con from 4.22784e-08 to 4.22784e-08
Heightened Def Con from 4.22784e-08 +to 4.22784e-08
Heightened Def Con from 4.22784e-08 ++to 4.22784e-08
Heightened Def Con from 4.22784e-08 to 4.22784e-08
Heightened Def Con from 4.22784e-08 ++to 4.22784e-08
Heightened Def Con from 4.22784e-08 to 4.22784e-08
Heightened Def Con from 4.22784e-08 to 4.22784e-08
Heightened Def Con from 4.22784e-08 +to 4.22784e-08
Heightened Def Con from 4.22784e-08 to 4.22784e-08
Heightened Def Con from 4.22784e-08 to 4.22784e-08
Heightened Def Con from 4.22784e-08 to 4.22784e-08
Heightened Def Con from 4.22784e-08 +to 4.22784e-08
Heightened Def Con from 4.22784e-08 to 4.22784e-08
Heightened Def Con from 4.22784e-08 ++to 4.22784e-08
Heightened Def Con from 4.22784e-08 ++++to 4.22784e-08
Heightened Def Con from 4.22784e-08 to 4.22784e-08
Heightened Def Con from 4.22784e-08 to 4.22784e-08
Heightened Def Con from 4.22784e-08 +to 4.22784e-08
Heightened Def Con from 4.22784e-08 to 4.22784e-08
Heightened Def Con from 4.22784e-08 to 4.22784e-08
Heightened Def Con from 4.22784e-08 to 4.22784e-08
Heightened Def Con from 4.22784e-08 +to 4.22784e-08
Heightened Def Con from 4.22784e-08 to 4.22784e-08
Heightened Def Con from 4.22784e-08 ++++to 4.22784e-08
Heightened Def Con from 4.22784e-08 +to 4.22784e-08
Heightened Def Con from 4.22784e-08 to 4.22784e-08
Heightened Def Con from 4.22784e-08 +to 4.22784e-08
Heightened Def Con from 4.22784e-08 to 4.22784e-08
Heightened Def Con from 4.22784e-08 +to 4.22784e-08
Heightened Def Con from 4.22784e-08 to 4.22784e-08
Heightened Def Con from 4.22784e-08 +to 4.22784e-08
Heightened Def Con from 4.22784e-08 to 4.22784e-08
Heightened Def Con from 4.22784e-08 +to 4.22784e-08
Heightened Def Con from 4.22784e-08 +to 4.22784e-08
Heightened Def Con from 4.22784e-08 to 4.22784e-08
Heightened Def Con from 4.22784e-08 to 4.22784e-08
Heightened Def Con from 4.22784e-08 +to 4.22784e-08
Heightened Def Con from 4.22784e-08 to 4.22784e-08
Heightened Def Con from 4.22784e-08 to 4.22784e-08
Heightened Def Con from 4.22784e-08 to 4.22784e-08
Heightened Def Con from 4.22784e-08 to 4.22784e-08
Heightened Def Con from 4.22784e-08 to 4.22784e-08
Heightened Def Con from 4.22784e-08 ++to 4.22784e-08
Heightened Def Con from 4.22784e-08 ++++++to 4.22784e-08
Heightened Def Con from 4.22784e-08 to 4.22784e-08
Heightened Def Con from 4.22784e-08 to 4.22784e-08
Heightened Def Con from 4.22784e-08 +to 4.22784e-08
Heightened Def Con from 4.22784e-08 to 4.22784e-08
Heightened Def Con from 4.22784e-08 to 4.22784e-08
Heightened Def Con from 4.22784e-08 to 4.22784e-08
Heightened Def Con from 4.22784e-08 +to 4.22784e-08
Heightened Def Con from 4.22784e-08 to 4.22784e-08
Heightened Def Con from 4.22784e-08 to 4.22784e-08
Heightened Def Con from 4.22784e-08 +to 4.22784e-08
Heightened Def Con from 4.22784e-08 to 4.22784e-08
Heightened Def Con from 4.22784e-08 to 4.22784e-08
Heightened Def Con from 4.22784e-08 to 4.22784e-08
Heightened Def Con from 4.22784e-08 +to 4.22784e-08
Heightened Def Con from 4.22784e-08 +to 4.22784e-08
Heightened Def Con from 4.22784e-08 to 4.22784e-08
Heightened Def Con from 4.22784e-08 ++++to 4.22784e-08
Heightened Def Con from 4.22784e-08 +to 4.22784e-08
Heightened Def Con from 4.22784e-08 +to 4.22784e-08
Heightened Def Con from 4.22784e-08 ++to 4.22784e-08
Heightened Def Con from 4.22784e-08 to 4.22784e-08
Heightened Def Con from 4.22784e-08 to 4.22784e-08
Heightened Def Con from 4.22784e-08 ++to 4.22784e-08
Heightened Def Con from 4.22784e-08 to 4.22784e-08
Heightened Def Con from 4.22784e-08 ++to 4.22784e-08
Heightened Def Con from 4.22784e-08 to 4.22784e-08
Heightened Def Con from 4.22784e-08 ++++to 4.22784e-08
Heightened Def Con from 4.22784e-08 +to 4.22784e-08
Heightened Def Con from 4.22784e-08 +++++++++++++++++++to 4.22786e-08
Heightened Def Con from 4.27714e-08 to 4.27714e-08
Heightened Def Con from 4.31202e-08 to 4.31202e-08
Heightened Def Con from 4.31202e-08 to 4.31202e-08
Heightened Def Con from 4.31202e-08 to 4.31202e-08
Heightened Def Con from 4.31202e-08 to 4.31202e-08
Heightened Def Con from 4.31202e-08 to 4.31202e-08
Heightened Def Con from 4.31202e-08 to 4.31202e-08
Heightened Def Con from 4.31202e-08 to 4.31202e-08
Heightened Def Con from 4.31202e-08 to 4.31202e-08
Heightened Def Con from 4.31202e-08 to 4.31202e-08
Heightened Def Con from 4.31202e-08 to 4.31202e-08
Heightened Def Con from 4.31202e-08 +to 4.31202e-08
Heightened Def Con from 4.31202e-08 to 4.31202e-08
Heightened Def Con from 4.31202e-08 to 4.31202e-08
Heightened Def Con from 4.31202e-08 to 4.31202e-08
Heightened Def Con from 4.31202e-08 to 4.31202e-08
Heightened Def Con from 4.31202e-08 to 4.31202e-08
Heightened Def Con from 4.31202e-08 to 4.31202e-08
Heightened Def Con from 4.31202e-08 to 4.31202e-08
Heightened Def Con from 4.31202e-08 +to 4.31202e-08
Heightened Def Con from 4.31202e-08 to 4.31202e-08
Heightened Def Con from 4.31202e-08 to 4.31202e-08
Heightened Def Con from 4.31202e-08 +to 4.31202e-08
Heightened Def Con from 4.31202e-08 to 4.31202e-08
Heightened Def Con from 4.31202e-08 to 4.31202e-08
Heightened Def Con from 4.31202e-08 to 4.31202e-08
Heightened Def Con from 4.31202e-08 to 4.31202e-08
Heightened Def Con from 4.31202e-08 to 4.31202e-08
Heightened Def Con from 4.31202e-08 to 4.31202e-08
Heightened Def Con from 4.31202e-08 to 4.31202e-08
Heightened Def Con from 4.31202e-08 +to 4.31202e-08
Heightened Def Con from 4.31202e-08 to 4.31202e-08
Heightened Def Con from 4.31202e-08 to 4.31202e-08
Heightened Def Con from 4.31202e-08 +++to 4.31202e-08
Heightened Def Con from 4.31202e-08 to 4.31202e-08
Heightened Def Con from 4.31202e-08 ++to 4.31202e-08
Heightened Def Con from 4.31202e-08 +to 4.31202e-08
Heightened Def Con from 4.31202e-08 to 4.31202e-08
Heightened Def Con from 4.31202e-08 to 4.31202e-08
Heightened Def Con from 4.31202e-08 to 4.31202e-08
Heightened Def Con from 4.31202e-08 to 4.31202e-08
Heightened Def Con from 4.31202e-08 +++to 4.31202e-08
Heightened Def Con from 4.31202e-08 to 4.31202e-08
Heightened Def Con from 4.31202e-08 to 4.31202e-08
Heightened Def Con from 4.31202e-08 to 4.31202e-08
Heightened Def Con from 4.31202e-08 ++to 4.31202e-08
Heightened Def Con from 4.31202e-08 ++to 4.31202e-08
Heightened Def Con from 4.31202e-08 to 4.31202e-08
Heightened Def Con from 4.31202e-08 to 4.31202e-08
Heightened Def Con from 4.31202e-08 to 4.31202e-08
Heightened Def Con from 4.31202e-08 to 4.31202e-08
Heightened Def Con from 4.31202e-08 to 4.31202e-08
Heightened Def Con from 4.31202e-08 +to 4.31202e-08
Heightened Def Con from 4.31202e-08 ++to 4.31202e-08
Heightened Def Con from 4.31202e-08 to 4.31202e-08
Heightened Def Con from 4.31202e-08 +to 4.31202e-08
Heightened Def Con from 4.31202e-08 to 4.31202e-08
Heightened Def Con from 4.31202e-08 to 4.31202e-08
Heightened Def Con from 4.31202e-08 +to 4.31202e-08
Heightened Def Con from 4.31202e-08 +++to 4.31202e-08
Heightened Def Con from 4.31202e-08 +to 4.31202e-08
Heightened Def Con from 4.31202e-08 to 4.31202e-08
Heightened Def Con from 4.31202e-08 ++++to 4.31202e-08
Heightened Def Con from 4.31202e-08 to 4.31202e-08
Heightened Def Con from 4.31202e-08 +to 4.31202e-08
Heightened Def Con from 4.31202e-08 +to 4.31202e-08
Heightened Def Con from 4.31202e-08 ++++to 4.31202e-08
Heightened Def Con from 4.32232e-08 ++to 4.32232e-08
Heightened Def Con from 4.32232e-08 to 4.32232e-08
Heightened Def Con from 4.32232e-08 to 4.32232e-08
Heightened Def Con from 4.32232e-08 +to 4.32232e-08
Heightened Def Con from 4.32232e-08 to 4.32232e-08
Heightened Def Con from 4.32232e-08 +to 4.32232e-08
Heightened Def Con from 4.32232e-08 to 4.32232e-08
Heightened Def Con from 4.32232e-08 to 4.32232e-08
Heightened Def Con from 4.32232e-08 to 4.32232e-08
Heightened Def Con from 4.32232e-08 to 4.32232e-08
Heightened Def Con from 4.32232e-08 to 4.32232e-08
Heightened Def Con from 4.32232e-08 ++to 4.32232e-08
Heightened Def Con from 4.32232e-08 ++to 4.32232e-08
Heightened Def Con from 4.32232e-08 to 4.32232e-08
Heightened Def Con from 4.32232e-08 to 4.32232e-08
Heightened Def Con from 4.32232e-08 to 4.32232e-08
Heightened Def Con from 4.32232e-08 to 4.32232e-08
Heightened Def Con from 4.32232e-08 to 4.32232e-08
Heightened Def Con from 4.32232e-08 ++to 4.32232e-08
Heightened Def Con from 4.32232e-08 to 4.32232e-08
Heightened Def Con from 4.32232e-08 +to 4.32232e-08
Heightened Def Con from 4.32232e-08 to 4.32232e-08
Heightened Def Con from 4.32232e-08 to 4.32232e-08
Heightened Def Con from 4.32232e-08 +to 4.32232e-08
Heightened Def Con from 4.32232e-08 to 4.32232e-08
Heightened Def Con from 4.32232e-08 to 4.32232e-08
Heightened Def Con from 4.32232e-08 +to 4.32232e-08
Heightened Def Con from 4.32232e-08 to 4.32232e-08
Heightened Def Con from 4.32232e-08 to 4.32232e-08
Heightened Def Con from 4.32232e-08 to 4.32232e-08
Heightened Def Con from 4.32232e-08 to 4.32232e-08
Heightened Def Con from 4.32232e-08 to 4.32232e-08
Heightened Def Con from 4.32232e-08 to 4.32232e-08
Heightened Def Con from 4.32232e-08 to 4.32232e-08
Heightened Def Con from 4.32232e-08 to 4.32232e-08
Heightened Def Con from 4.32232e-08 to 4.32232e-08
Heightened Def Con from 4.32232e-08 to 4.32232e-08
Heightened Def Con from 4.32232e-08 to 4.32232e-08
Heightened Def Con from 4.32232e-08 to 4.32232e-08
Heightened Def Con from 4.32232e-08 to 4.32232e-08
Heightened Def Con from 4.32232e-08 to 4.32232e-08
Heightened Def Con from 4.32232e-08 +to 4.32232e-08
Heightened Def Con from 4.32232e-08 to 4.32232e-08
Heightened Def Con from 4.32232e-08 +to 4.32232e-08
Heightened Def Con from 4.32232e-08 to 4.32232e-08
Heightened Def Con from 4.32232e-08 +++to 4.32232e-08
Heightened Def Con from 4.32232e-08 ++to 4.32232e-08
Heightened Def Con from 4.32232e-08 to 4.32232e-08
Heightened Def Con from 4.32232e-08 +to 4.32232e-08
Heightened Def Con from 4.32232e-08 to 4.32232e-08
Heightened Def Con from 4.32232e-08 to 4.32232e-08
Heightened Def Con from 4.32232e-08 to 4.32232e-08
Heightened Def Con from 4.32232e-08 to 4.32232e-08
Heightened Def Con from 4.32232e-08 to 4.32232e-08
Heightened Def Con from 4.32232e-08 to 4.32232e-08
Heightened Def Con from 4.32232e-08 +to 4.32232e-08
Heightened Def Con from 4.32232e-08 to 4.32232e-08
Heightened Def Con from 4.32232e-08 to 4.32232e-08
Heightened Def Con from 4.32232e-08 to 4.32232e-08
Heightened Def Con from 4.32232e-08 to 4.32232e-08
Heightened Def Con from 4.32232e-08 +to 4.32232e-08
Heightened Def Con from 4.32232e-08 to 4.32232e-08
Heightened Def Con from 4.32232e-08 +to 4.32232e-08
Heightened Def Con from 4.32232e-08 to 4.32232e-08
Heightened Def Con from 4.32232e-08 to 4.32232e-08
Heightened Def Con from 4.32232e-08 +to 4.32232e-08
Heightened Def Con from 4.32232e-08 +++to 4.32232e-08
Heightened Def Con from 4.32232e-08 to 4.32232e-08
Heightened Def Con from 4.32232e-08 to 4.32232e-08
Heightened Def Con from 4.32232e-08 to 4.32232e-08
Heightened Def Con from 4.32232e-08 to 4.32232e-08
Heightened Def Con from 4.32232e-08 ++to 4.32232e-08
Heightened Def Con from 4.32232e-08 to 4.32232e-08
Heightened Def Con from 4.32232e-08 to 4.32232e-08
Heightened Def Con from 4.32232e-08 +to 4.32232e-08
Heightened Def Con from 4.32232e-08 to 4.32232e-08
Heightened Def Con from 4.32232e-08 to 4.32232e-08
Heightened Def Con from 4.32232e-08 to 4.32232e-08
Heightened Def Con from 4.32232e-08 +to 4.32232e-08
Heightened Def Con from 4.32232e-08 ++to 4.32232e-08
Heightened Def Con from 4.32232e-08 +to 4.32232e-08
Heightened Def Con from 4.32232e-08 to 4.32232e-08
Heightened Def Con from 4.32232e-08 to 4.32232e-08
Heightened Def Con from 4.32232e-08 to 4.32232e-08
Heightened Def Con from 4.32232e-08 ++to 4.32232e-08
Heightened Def Con from 4.32232e-08 to 4.32232e-08
Heightened Def Con from 4.32232e-08 +++++++++++++++++++to 4.32247e-08
Heightened Def Con from 4.7125e-08 to 4.7125e-08
Heightened Def Con from 4.86844e-08 to 4.86844e-08
Heightened Def Con from 4.91683e-08 to 4.91683e-08
Total elapsed time: 5.785 seconds.

